[TITLE]
 EPANET Example (BakRyun in Original) 

[JUNCTIONS]
 1                                    24.9000
 2                                    29.9000
 3                                    31.4000
 4                                    40.7700
 5                                    24.3000
 6                                    28.0000
 7                                    22.4000
 8                                    31.4000
 9                                    21.9000
 10                                   17.6000
 11                                   17.8000
 12                                   22.9000
 13                                   14.1000
 14                                   17.4000
 15                                   19.4000
 16                                   17.1000
 17                                   19.9000
 18                                   20.6000
 19                                   36.4000
 20                                   23.5000
 21                                   26.3000
 22                                   34.3000
 23                                   20.8000
 24                                   26.3000
 25                                   15.4000
 26                                   11.4000
 27                                   11.4000
 28                                   11.1000
 29                                   10.5000
 30                                   11.6000
 31                                   25.2000
 32                                   12.9000
 33                                   12.9000
 34                                   18.2000
 35                                   25.2000

[RESERVOIRS]
 99                                   58.0000 

[TANKS]

[PIPES]
 1                               99                              1                                   200.0000    1100.0000     100.0000       0.0000 
 2                               1                               2                                   470.0000    1100.0000     100.0000       0.0000 
 3                               2                               3                                    80.0000    1100.0000     100.0000       0.0000 
 4                               3                               4                                   370.0000     900.0000     100.0000       0.0000 
 5                               4                               6                                   410.0000     900.0000     100.0000       0.0000 
 6                               6                               7                                   540.0000     800.0000     100.0000       0.0000 
 7                               7                               11                                  530.0000     600.0000     100.0000       0.0000 
 8                               11                              16                                  130.0000     500.0000     100.0000       0.0000 
 9                               16                              17                                  470.0000     500.0000     100.0000       0.0000 
 10                              3                               4                                   370.0000     600.0000     100.0000       0.0000 
 11                              3                               5                                   470.0000     100.0000     100.0000       0.0000 
 12                              4                               5                                   380.0000     100.0000     100.0000       0.0000 
 13                              4                               6                                   410.0000     600.0000     100.0000       0.0000 
 14                              6                               7                                   540.0000     600.0000     100.0000       0.0000 
 15                              7                               8                                   170.0000     200.0000     100.0000       0.0000 
 16                              9                               8                                   390.0000      80.0000     100.0000       0.0000 
 17                              5                               9                                   510.0000     150.0000     100.0000       0.0000 
 18                              9                               10                                  600.0000     150.0000     100.0000       0.0000 
 19                              7                               11                                  530.0000     600.0000     100.0000       0.0000 
 20                              11                              16                                  130.0000     600.0000     100.0000       0.0000 
 21                              11                              12                                  530.0000     400.0000     100.0000       0.0000 
 22                              10                              15                                  560.0000     150.0000     100.0000       0.0000 
 23                              15                              14                                  440.0000     400.0000     100.0000       0.0000 
 24                              12                              14                                  160.0000     400.0000     100.0000       0.0000 
 25                              12                              13                                  350.0000     150.0000     100.0000       0.0000 
 26                              16                              13                                  170.0000     150.0000     100.0000       0.0000 
 27                              16                              19                                  350.0000     200.0000     100.0000       0.0000 
 28                              19                              20                                  590.0000     100.0000     100.0000       0.0000 
 29                              19                              18                                  400.0000      80.0000     100.0000       0.0000 
 30                              16                              17                                  470.0000     600.0000     100.0000       0.0000 
 31                              13                              27                                  350.0000     100.0000     100.0000       0.0000 
 32                              27                              14                                  540.0000     300.0000     100.0000       0.0000 
 33                              27                              26                                  230.0000     100.0000     100.0000       0.0000 
 34                              25                              26                                  270.0000     100.0000     100.0000       0.0000 
 35                              26                              28                                  400.0000     100.0000     100.0000       0.0000 
 36                              15                              28                                  620.0000     150.0000     100.0000       0.0000 
 37                              26                              29                                  600.0000     100.0000     100.0000       0.0000 
 38                              30                              29                                  350.0000     400.0000     100.0000       0.0000 
 39                              25                              30                                  540.0000     700.0000     100.0000       0.0000 
 40                              30                              35                                  370.0000     450.0000     100.0000       0.0000 
 41                              17                              25                                   90.0000     700.0000     100.0000       0.0000 
 42                              25                              31                                  540.0000     100.0000     100.0000       0.0000 
 43                              17                              18                                  220.0000     700.0000     100.0000       0.0000 
 44                              18                              24                                  390.0000     700.0000     100.0000       0.0000 
 45                              24                              23                                  400.0000     700.0000     100.0000       0.0000 
 46                              20                              24                                  560.0000      80.0000     100.0000       0.0000 
 47                              11                              20                                  900.0000     500.0000     100.0000       0.0000 
 48                              20                              21                                  310.0000     500.0000     100.0000       0.0000 
 49                              21                              23                                  300.0000     300.0000     100.0000       0.0000 
 50                              20                              23                                  510.0000     400.0000     100.0000       0.0000 
 51                              15                              22                                  250.0000     700.0000     100.0000       0.0000 
 52                              23                              32                                  350.0000     300.0000     100.0000       0.0000 
 53                              31                              32                                  380.0000     100.0000     100.0000       0.0000 
 54                              32                              33                                  690.0000     200.0000     100.0000       0.0000 
 55                              31                              35                                  670.0000     200.0000     100.0000       0.0000 
 56                              33                              34                                  870.0000     200.0000     100.0000       0.0000 
 57                              35                              34                                  620.0000     200.0000     100.0000       0.0000 
 58                              29                              22                                  580.0000     400.0000     100.0000       0.0000 

[PUMPS]

[VALVES]

[DEMANDS]
 1                                     0.000000 
 2                                    48.970000 
 3                                    37.700000 
 4                                    52.410000 
 5                                    20.650000 
 6                                   231.750000 
 7                                    65.660000 
 8                                    29.120000 
 9                                     9.950000 
 10                                    3.870000 
 11                                   17.500000 
 12                                   10.430000 
 13                                    9.870000 
 14                                   11.050000 
 15                                   26.270000 
 16                                   14.530000 
 17                                   17.660000 
 18                                   17.330000 
 19                                    8.290000 
 20                                   79.860000 
 21                                  115.740000 
 22                                    7.360000 
 23                                    9.360000 
 24                                   23.950000 
 25                                   20.380000 
 26                                   26.380000 
 27                                   20.780000 
 28                                   22.780000 
 29                                   34.560000 
 30                                   24.050000 
 31                                   18.370000 
 32                                   47.280000 
 33                                   54.410000 
 34                                    0.000000 
 35                                    7.720000 

[EMITTERS]

[STATUS]

[PATTERNS]

[CURVES]

[CONTROLS]

[QUALITY]

[SOURCES]

[MIXING]

[REACTIONS]
 ORDER  BULK            1.00
 ORDER  WALL            1
 ORDER  TANK            1.00
 GLOBAL BULK            0.000000
 GLOBAL WALL            0.000000

[ENERGY]
 GLOBAL EFFIC        75.0000
 DEMAND CHARGE       0.0000

[TIMES]
 DURATION            0:00:00
 HYDRAULIC TIMESTEP  1:00:00
 QUALITY TIMESTEP    0:05:00
 REPORT TIMESTEP     1:00:00
 REPORT START        0:00:00
 PATTERN TIMESTEP    1:00:00
 PATTERN START       0:00:00
 RULE TIMESTEP       0:06:00
 START CLOCKTIME     0:00:00
 STATISTIC           NONE

[OPTIONS]
 UNITS               LPS
 PRESSURE            METERS
 HEADLOSS            H-W
 UNBALANCED          CONTINUE 10
 QUALITY             NONE
 DEMAND MULTIPLIER   1.0000
 EMITTER EXPONENT    0.5000
 VISCOSITY           1.000000
 DIFFUSIVITY         1.000000
 SPECIFIC GRAVITY    1.000000
 TRIALS              40
 ACCURACY            0.00001000
 TOLERANCE           0.01000000
 CHECKFREQ           2
 MAXCHECK            10
 DAMPLIMIT           0.00000000

[REPORT]
 PAGESIZE            0
 STATUS              YES
 SUMMARY             NO
 ENERGY              NO
 MESSAGES            YES
 NODES               NONE
 LINKS               NONE
 Elevation           NO
 Demand              PRECISION 2
 Head                PRECISION 2
 Pressure            PRECISION 2
 Quality             NO
 Length              NO
 Diameter            NO
 Flow                PRECISION 2
 Velocity            PRECISION 2
 Headloss            PRECISION 2
 Quality             NO
 State               NO
 Setting             NO
 Reaction            NO



[COORDINATES]
 1                                 -2260.030000    6736.470000
 2                                 -2260.030000    7905.760000
 3                                  -881.330000    7923.210000
 4                                   514.830000    7888.310000
 5                                  -951.130000    6736.470000
 6                                  1806.280000    7853.400000
 7                                  1771.380000    6684.120000
 8                                  1806.280000    5619.550000
 9                                  -898.780000    5532.290000
 10                                 -916.230000    4258.290000
 11                                 3289.700000    6684.120000
 12                                 3254.800000    5549.740000
 13                                 4755.670000    5479.930000
 14                                 3237.350000    4171.030000
 15                                 1003.490000    2739.970000
 16                                 4755.670000    6684.120000
 17                                 6134.380000    6614.310000
 18                                 6169.280000    7748.690000
 19                                 4703.320000    7748.690000
 20                                 4685.860000    8883.070000
 21                                 6221.640000    9685.860000
 22                                  986.040000    1553.230000
 23                                 7757.420000    8917.980000
 24                                 7739.970000    7731.240000
 25                                 6099.480000    5427.570000
 26                                 6134.380000    4240.840000
 27                                 4703.320000    4153.580000
 28                                 3184.990000    2670.160000
 29                                 6134.380000    1535.780000
 30                                 7757.420000    4258.290000
 31                                 7739.970000    5532.290000
 32                                 9450.260000    7766.140000
 33                                11090.750000    7766.140000
 34                                11125.650000    5532.290000
 35                                 9380.450000    5479.930000
 99                                -2277.490000    5479.930000

[TAGS]

[VERTICES]
;Link            	X-Coord         	Y-Coord
 3               	-811.52         	7923.21         
 4               	-218.15         	8342.06         
 5               	1125.65         	8307.16         
 6               	2207.68         	7347.29         
 7               	2696.34         	6963.35         
 8               	4109.95         	7015.71         
 9               	5471.20         	6876.09         

[LABELS]
;X-Coord           Y-Coord          Label & Anchor Node

[BACKDROP]
 DIMENSIONS     	-2947.65        	1128.28         	11795.81        	10093.36        
 UNITS          	None
 FILE           	
 OFFSET         	0.00            	0.00            


[END]