[TITLE]


[JUNCTIONS]
;ID              	Elev        	Demand      	Pattern         
 J411            	8.95        	.8890401    	DMA1_pat        	;
 J414            	34.36       	.9658645    	DMA1_pat        	;
 J417            	37.38       	1.291233    	DMA1_pat        	;
 J314            	14.94       	1.437699    	DMA1_pat        	;
 J211            	11.27       	1.582595    	DMA1_pat        	;
 J212            	7.87        	.6066978    	DMA1_pat        	;
 J214            	8.67        	.8747806    	DMA1_pat        	;
 J217            	10.98       	1.27852     	DMA1_pat        	;
 J218            	7.68        	8.917417E-02	DMA1_pat        	;
 J110            	15.92       	.781167     	DMA1_pat        	;
 J421            	37.09       	1.037828    	DMA1_pat        	;
 J1153           	22.14       	.439655     	DMA1_pat        	;
 J1154           	14.61       	.46557      	DMA1_pat        	;
 J1155           	15.54       	1.383003    	DMA1_pat        	;
 J1157           	22.21       	1.643489    	DMA1_pat        	;
 J1056           	7.64        	1.12696     	DMA1_pat        	;
 J431            	16.9        	1.055298    	DMA1_pat        	;
 J432            	19.88       	.3459353    	DMA1_pat        	;
 J433            	27.35       	.3100225    	DMA1_pat        	;
 J434            	16.48       	.9722651    	DMA1_pat        	;
 J435            	12.15       	.1345244    	DMA1_pat        	;
 J438            	10.43       	1.50955     	DMA1_pat        	;
 J336            	23.81       	.1632897    	DMA1_pat        	;
 J337            	22.11       	.935067     	DMA1_pat        	;
 J341            	14.89       	.4287795    	DMA1_pat        	;
 J154            	43.69       	.54956      	DMA1_pat        	;
 J155            	44.41       	.1590483    	DMA1_pat        	;
 J156            	56.16       	.2831225    	DMA1_pat        	;
 J159            	37.41       	.4549114    	DMA1_pat        	;
 J160            	43.69       	.5676775    	DMA1_pat        	;
 J177            	13.14       	.8253523    	DMA1_pat        	;
 J179            	15.01       	.6882797    	DMA1_pat        	;
 J1025           	8.61        	.5041625    	DMA1_pat        	;
 J408            	7.93        	.8883706    	DMA1_pat        	;
 J192            	12.4        	1.253851    	DMA1_pat        	;
 J194            	13.46       	1.243345    	DMA1_pat        	;
 J196            	13.35       	1.057619    	DMA1_pat        	;
 J308            	33.24       	1.18838     	DMA1_pat        	;
 J199            	16.26       	.6699712    	DMA1_pat        	;
 J201            	44.86       	.4588259    	DMA1_pat        	;
 J202            	10.41       	1.64229     	DMA1_pat        	;
 J203            	11.03       	1.337646    	DMA1_pat        	;
 J204            	21.51       	1.160168    	DMA1_pat        	;
 J208            	11.25       	.5943106    	DMA1_pat        	;
 J109            	17.47       	.2025833    	DMA1_pat        	;
 J11             	18.43       	.3629998    	DMA1_pat        	;
 J12             	29.27       	.631652     	DMA1_pat        	;
 J13             	32.04       	.6597406    	DMA1_pat        	;
 J24             	34.53       	1.340445    	DMA1_pat        	;
 J39             	45.88       	1.12471     	DMA1_pat        	;
 J269            	56          	0           	                	;
 J273            	56          	0           	                	;
 J274            	56          	0           	                	;
 J276            	56          	0           	                	;
 J280            	56          	0           	                	;
 J285            	56          	0           	                	;

[RESERVOIRS]
;ID              	Head        	Pattern         
 R1              	59          	                	;

[TANKS]
;ID              	Elevation   	InitLevel   	MinLevel    	MaxLevel    	Diameter    	MinVol      	VolCurve
 T1              	71.5        	3           	0           	6.5         	31.3        	0           	                	;

[PIPES]
;ID              	Node1           	Node2           	Length      	Diameter    	Roughness   	MinorLoss   	Status
 P100            	J159            	J160            	107.88      	406         	76.51422883 	0           	Open  	;
 P1000           	J341            	J204            	109.27      	203         	76.94614787 	0           	Open  	;
 P102            	J109            	J408            	1280.3      	508         	92.94722922 	0           	Open  	;
 P110            	J179            	J177            	425.83      	508         	98.99414116 	0           	Open  	;
 P115            	J408            	J435            	99.88       	102         	91.23151293 	0           	Open  	;
 P117            	J435            	J431            	104         	102         	67.96195457 	0           	Open  	;
 P118            	J431            	J432            	115.91      	102         	84.66525677 	0           	Open  	;
 P12             	J208            	J337            	85.24       	406         	89.66261184 	0           	Open  	;
 P13             	J337            	J24             	62.56       	406         	83.04378688 	0           	Open  	;
 P138            	J203            	J217            	19.28       	254         	72.48528099 	0           	Open  	;
 P139            	J208            	J211            	73.66       	406         	68.718495   	0           	Open  	;
 P14             	J24             	J39             	151.39      	406         	72.00911504 	0           	Open  	;
 P15             	J39             	T1              	395.29      	406         	90.48302153 	0           	Open  	;
 P159            	J204            	J336            	118.78      	203         	80.14718268 	0           	Open  	;
 P17             	J408            	J1025           	32.42       	508         	77.28134214 	0           	Open  	;
 P18             	J1025           	J411            	283.3       	508         	100.3       	0           	Open  	;
 P19             	J411            	J1056           	750.87      	508         	97.7        	0           	Open  	;
 P20             	J1056           	J214            	579.67      	508         	89.67250259 	0           	Open  	;
 P21             	J214            	J212            	176.48      	406         	86.69368007 	0           	Open  	;
 P22             	J159            	J192            	567.3       	406         	81.11362312 	0           	Open  	;
 P23             	J192            	J196            	316.91      	508         	77.16263034 	0           	Open  	;
 P235            	J336            	J337            	92.74       	76          	84.32189979 	0           	Open  	;
 P24             	J177            	J194            	71.05       	508         	88.62083113 	0           	Open  	;
 P25             	J196            	J194            	4.3         	508         	74.37733692 	0           	Open  	;
 P296            	J432            	J433            	231.87      	76          	82.95723709 	0           	Open  	;
 P297            	J411            	J438            	42.53       	406         	73          	0           	Open  	;
 P298            	J438            	J434            	40.11       	305         	84.55106971 	0           	Open  	;
 P301            	J434            	J11             	45.31       	305         	85.18923941 	0           	Open  	;
 P302            	J11             	J433            	178.28      	305         	80.34022293 	0           	Open  	;
 P307            	J433            	J12             	47.3        	305         	60.51223799 	0           	Open  	;
 P310            	J269            	J156            	9           	610         	87.26802597 	0           	Open  	;
 P316            	R1              	J280            	11.62       	610         	70.45194642 	0           	Open  	;
 P319            	J274            	J269            	10.54       	610         	76.59274096 	0           	Open  	;
 P320            	J273            	J269            	11.47       	610         	76.51881041 	0           	Open  	;
 P322            	J280            	J285            	11.5        	610         	89.43312359 	0           	Open  	;
 P323            	J280            	J276            	11.47       	610         	84.68719833 	0           	Open  	;
 P34             	J179            	J110            	98          	508         	78.50596539 	0           	Open  	;
 P443            	J13             	J12             	67.31       	305         	85.57602477 	0           	Open  	;
 P445            	J417            	J421            	7.8         	254         	86.21060196 	0           	Open  	;
 P484            	J438            	J13             	336.57      	203         	79.98       	0           	Open  	;
 P7              	J218            	J211            	60.22       	508         	78.45371492 	0           	Open  	;
 P8              	J218            	J212            	11.35       	406         	76.077444   	0           	Open  	;
 P819            	J1153           	J1157           	8.02        	203         	105.0732947 	0           	Open  	;
 P83             	J155            	J160            	15.14       	610         	75.66382855 	0           	Open  	;
 P892            	J414            	J13             	30.39       	254         	69.84847395 	0           	Open  	;
 P9              	J212            	J217            	49.95       	254         	66.74918886 	0           	Open  	;
 P96             	J414            	J417            	53.72       	254         	87.90275096 	0           	Open  	;
 P97             	J154            	J155            	24.41       	610         	88.89531663 	0           	Open  	;
 P970            	J1154           	J199            	165.04      	203         	87.79507815 	0           	Open  	;
 P98             	J156            	J154            	174.53      	610         	71.75234195 	0           	Open  	;
 P989            	J1153           	J1155           	91.59       	51          	82.07033197 	0           	Open  	;
 P99             	J110            	J109            	452.37      	508         	96.63823156 	0           	Open  	;
 P990            	J1155           	J1154           	78.87       	102         	85.78766419 	0           	Open  	;
 P991            	J214            	J202            	20.25       	203         	74.3133426  	0           	Open  	;
 P992            	J202            	J314            	69.15       	203         	80.64075409 	0           	Open  	;
 P993            	J314            	J199            	63.52       	203         	80.23202717 	0           	Open  	;
 P994            	J199            	J1157           	115.39      	203         	83.09435479 	0           	Open  	;
 P995            	J1157           	J201            	228.99      	152         	82.49961346 	0           	Open  	;
 P997            	J201            	J308            	154.87      	203         	96.61744961 	0           	Open  	;
 P998            	J308            	J204            	107.98      	203         	90.64077339 	0           	Open  	;
 P999            	J203            	J341            	81.67       	254         	68.70464794 	0           	Open  	;

[PUMPS]
;ID              	Node1           	Node2           	Parameters
 PU1             	J285            	J273            	HEAD 8	;
 PU2             	J280            	J269            	HEAD 8	;

[VALVES]
;ID              	Node1           	Node2           	Diameter    	Type	Setting     	MinorLoss   

[TAGS]

[DEMANDS]
;Junction        	Demand      	Pattern         	Category

[STATUS]
;ID              	Status/Setting

[PATTERNS]
;ID              	Multipliers
;
 DMA1_pat        	0.5691504   	0.46466868  	0.43854825  	0.3604161   	0.309779115 	0.334524795 
 DMA1_pat        	0.384703515 	0.471542475 	0.55013289  	0.680505915 	0.70364769  	0.67088259  
 DMA1_pat        	0.79690221  	0.719915685 	0.770552655 	0.73847493  	0.81477408  	0.72426909  
 DMA1_pat        	0.806983785 	0.779259465 	0.866785815 	0.740766195 	0.67042434  	0.632389335 
 DMA1_pat        	0.52252044  	0.506709855 	0.445588455 	0.45465063  	0.47547432  	0.53389635  
 DMA1_pat        	0.662501925 	0.62239704  	0.67599876  	0.72593706  	0.803061855 	0.70144995  
 DMA1_pat        	0.69335184  	0.653825385 	0.621432975 	0.65228289  	0.571880295 	0.57901434  
 DMA1_pat        	0.58209933  	0.711668985 	0.70453494  	0.665779725 	0.741747645 	0.692194965 
 DMA1_pat        	0.72708954  	0.619247205 	0.46304505  	0.45095511  	0.309260895 	0.282421215 
 DMA1_pat        	0.433303785 	0.40670589  	0.545014905 	0.69928266  	0.739904895 	0.6434271   
 DMA1_pat        	0.680905935 	0.691061505 	0.67727895  	0.626259375 	0.626742975 	0.7142742   
 DMA1_pat        	0.681873135 	0.788264685 	0.75779802  	0.788264685 	0.802047225 	0.845571045 
 DMA1_pat        	0.604884255 	0.443633715 	0.5131584   	0.36476118  	0.31782714  	0.463887405 
 DMA1_pat        	0.39572595  	0.64149669  	0.671098245 	0.668761275 	0.79456785  	0.674603685 
 DMA1_pat        	0.754255215 	0.808394895 	0.713747835 	0.68570427  	0.68122509  	0.549576105 
 DMA1_pat        	0.68219883  	0.569829795 	0.74334939  	0.832154025 	0.67888812  	0.746270595 
 DMA1_pat        	0.601325505 	0.503529285 	0.51908778  	0.35946171  	0.29924835  	0.453216765 
 DMA1_pat        	0.42957594  	0.539495655 	0.896330625 	0.89673474  	0.682552935 	0.57990732  
 DMA1_pat        	0.428969775 	0.4200792   	0.62941161  	0.691039395 	0.670631505 	0.618904575 
 DMA1_pat        	0.682552935 	0.832884315 	0.90279648  	0.821771115 	0.84945309  	0.691039395 
 DMA1_pat        	0.716292135 	0.54775281  	0.53349507  	0.419645895 	0.35601804  	0.33814266  
 DMA1_pat        	0.45241743  	0.509874015 	0.56456418  	0.760767795 	0.62159517  	0.67820055  
 DMA1_pat        	0.6928839   	0.639257745 	0.619892745 	0.659686755 	0.65628192  	0.631809675 
 DMA1_pat        	0.604145385 	0.70394961  	0.772471905 	0.88546986  	0.88334184  	0.752042895 
 DMA1_pat        	0.71409849  	0.457925235 	0.446544345 	0.42936957  	0.40184853  	0.43309422  
 DMA1_pat        	0.469926885 	0.52227894  	0.590771145 	0.754862745 	0.76996827  	0.644778585 
 DMA1_pat        	0.73210098  	0.70954614  	0.548144565 	0.577734855 	0.592426545 	0.624499935 
 DMA1_pat        	0.55973238  	0.766864395 	0.716995455 	0.77452062  	0.90446958  	0.85749759  
;
 DMA2_pat        	0.61842105  	0.45394737  	0.444736845 	0.3381579   	0.31578948  	0.313157895 
 DMA2_pat        	0.414473685 	0.448684215 	0.49868421  	0.58157895  	0.684210525 	0.72763158  
 DMA2_pat        	0.669736845 	0.79210527  	0.66842106  	0.815789475 	0.771052635 	0.830263155 
 DMA2_pat        	0.807894735 	0.793421055 	0.83552631  	0.83684211  	0.677631585 	0.661842105 
 DMA2_pat        	0.567746055 	0.470813805 	0.470813805 	0.42607584  	0.428206215 	0.474009375 
 DMA2_pat        	0.57946314  	0.623135925 	0.683851725 	0.774392835 	0.77119728  	0.79569663  
 DMA2_pat        	0.66254793  	0.73604601  	0.71154666  	0.59544099  	0.63485301  	0.616744785 
 DMA2_pat        	0.58159353  	0.596506185 	0.700894755 	0.650830845 	0.71580741  	0.73178526  
 DMA2_pat        	0.681082545 	0.73368099  	0.49901097  	0.373583895 	0.315590715 	0.276479055 
 DMA2_pat        	0.347959005 	0.461247975 	0.528681885 	0.625786725 	0.66894444  	0.7647006   
 DMA2_pat        	0.66624708  	0.651411615 	0.75660852  	0.561050175 	0.655457655 	0.64466823  
 DMA2_pat        	0.71614818  	0.840226575 	0.771443985 	0.790325475 	0.848318655 	0.821345085 
 DMA2_pat        	0.66520308  	0.501646545 	0.49286499  	0.41602635  	0.361141605 	0.437980245 
 DMA2_pat        	0.394072455 	0.654226125 	0.60592755  	0.81119649  	0.769484085 	0.64324917  
 DMA2_pat        	0.69703623  	0.67618002  	0.70801317  	0.70801317  	0.705817785 	0.538968165 
 DMA2_pat        	0.58068057  	0.565312845 	0.75411636  	0.825466515 	0.693743145 	0.793633365 
 DMA2_pat        	0.75185274  	0.5080086   	0.48529764  	0.380109975 	0.33707865  	0.39445374  
 DMA2_pat        	0.48410232  	0.64188381  	0.812813775 	0.84628257  	0.68252451  	0.59287593  
 DMA2_pat        	0.42553191  	0.41955534  	0.583313415 	0.6239541   	0.58689936  	0.562993065 
 DMA2_pat        	0.659813535 	0.811618455 	0.811618455 	0.882142005 	0.85823571  	0.857040405 
 DMA2_pat        	0.670350795 	0.574243155 	0.502162425 	0.43248438  	0.373618455 	0.35439693  
 DMA2_pat        	0.467323395 	0.46612206  	0.59346468  	0.717203265 	0.58625661  	0.58625661  
 DMA2_pat        	0.6811629   	0.647525235 	0.68957232  	0.716001915 	0.70759251  	0.68236425  
 DMA2_pat        	0.660740025 	0.734022105 	0.806102835 	0.796492065 	0.8421432   	0.71239788  
 DMA2_pat        	0.59427819  	0.4651884   	0.494262675 	0.44541789  	0.326794845 	0.512870205 
 DMA2_pat        	0.514033185 	0.525662895 	0.58264848  	0.60125601  	0.77919057  	0.66289347  
 DMA2_pat        	0.68266398  	0.72918282  	0.5896263   	0.603581955 	0.588463335 	0.65940456  
 DMA2_pat        	0.625678395 	0.6977826   	0.78267948  	0.81756861  	0.929213835 	0.789657315 
;
 DMA3_pat        	0.54445029  	0.481325625 	0.422146245 	0.35507628  	0.32351394  	0.359021565 
 DMA3_pat        	0.41031036  	0.47343504  	0.56023146  	0.67464492  	0.75355077  	0.729879015 
 DMA3_pat        	0.670699635 	0.7338243   	0.70620726  	0.76144134  	0.714097845 	0.83640189  
 DMA3_pat        	0.871909515 	0.7377696   	0.725933715 	0.74960547  	0.670699635 	0.7338243   
 DMA3_pat        	0.587013555 	0.426322695 	0.44271972  	0.413205075 	0.432881505 	0.491910795 
 DMA3_pat        	0.554219505 	0.67883691  	0.754263225 	0.74442501  	0.793616085 	0.682116315 
 DMA3_pat        	0.695233935 	0.646042845 	0.593572365 	0.59685177  	0.639484035 	0.646042845 
 DMA3_pat        	0.64276344  	0.682116315 	0.728027985 	0.67883691  	0.69195453  	0.75754263  
 DMA3_pat        	0.7140936   	0.70199031  	0.50430339  	0.395373855 	0.314685315 	0.28644432  
 DMA3_pat        	0.41958042  	0.431683695 	0.49623453  	0.697955895 	0.58902636  	0.693921465 
 DMA3_pat        	0.693921465 	0.766541145 	0.693921465 	0.5809575   	0.70602474  	0.70199031  
 DMA3_pat        	0.66568047  	0.823023135 	0.738300165 	0.859332975 	0.814954275 	0.71005917  
 DMA3_pat        	0.60602679  	0.485491065 	0.455357145 	0.391741065 	0.368303565 	0.411830355 
 DMA3_pat        	0.408482145 	0.662946435 	0.602678565 	0.703125    	0.65959821  	0.619419645 
 DMA3_pat        	0.709821435 	0.810267855 	0.763392855 	0.8203125   	0.763392855 	0.599330355 
 DMA3_pat        	0.6796875   	0.60602679  	0.689732145 	0.813616065 	0.703125    	0.666294645 
 DMA3_pat        	0.622706415 	0.57454128  	0.454128435 	0.36811926  	0.330275235 	0.44036697  
 DMA3_pat        	0.4059633   	0.61926606  	0.89105505  	0.94610091  	0.739678905 	0.564220185 
 DMA3_pat        	0.457568805 	0.40252293  	0.670871565 	0.64678899  	0.591743115 	0.557339445 
 DMA3_pat        	0.622706415 	0.82568808  	0.89105505  	0.85321101  	0.75344037  	0.770642205 
 DMA3_pat        	0.745526835 	0.59269383  	0.48832008  	0.380218695 	0.335487075 	0.37649106  
 DMA3_pat        	0.44731611  	0.562872765 	0.525596415 	0.71570577  	0.63742545  	0.58151094  
 DMA3_pat        	0.674701785 	0.667246515 	0.63742545  	0.641153085 	0.67097415  	0.68588469  
 DMA3_pat        	0.6001491   	0.730616295 	0.8499006   	0.86853876  	0.84244533  	0.7417992   
 DMA3_pat        	0.6641934   	0.527764485 	0.513403545 	0.45955002  	0.359023455 	0.477501195 
 DMA3_pat        	0.527764485 	0.56366682  	0.610339875 	0.63547152  	0.8006223   	0.71804691  
 DMA3_pat        	0.61393011  	0.60674964  	0.62111058  	0.61393011  	0.71804691  	0.574437525 
 DMA3_pat        	0.581617995 	0.667783635 	0.678554325 	0.91550982  	0.825753945 	0.72522738  
;
 DMA4_pat        	0.52452531  	0.448575945 	0.43670886  	0.31803798  	0.31803798  	0.327531645 
 DMA4_pat        	0.424841775 	0.43196202  	0.574367085 	0.664556955 	0.69066456  	0.740506335 
 DMA4_pat        	0.761867085 	0.764240505 	0.71914557  	0.68591772  	0.828322785 	0.828322785 
 DMA4_pat        	0.74525316  	0.80933544  	0.830696205 	0.702531645 	0.77373417  	0.65031645  
 DMA4_pat        	0.497324115 	0.45033285  	0.438585045 	0.4346691   	0.426837225 	0.532567545 
 DMA4_pat        	0.634381935 	0.708784755 	0.76360788  	0.71661663  	0.761649915 	0.79493538  
 DMA4_pat        	0.76948179  	0.62655006  	0.59913849  	0.58347474  	0.60109647  	0.59326458  
 DMA4_pat        	0.56781099  	0.59326458  	0.628508025 	0.771439755 	0.698994915 	0.8066832   
 DMA4_pat        	0.731355255 	0.66639936  	0.534081795 	0.39695268  	0.324779475 	0.257417805 
 DMA4_pat        	0.423416205 	0.43785084  	0.548516445 	0.69286287  	0.61347234  	0.75060144  
 DMA4_pat        	0.772253415 	0.673616685 	0.695268645 	0.663993585 	0.579791505 	0.685645545 
 DMA4_pat        	0.67121091  	0.83239776  	0.73857258  	0.878107455 	0.75060144  	0.680833995 
 DMA4_pat        	0.67206477  	0.487854255 	0.530364375 	0.414979755 	0.346153845 	0.421052625 
 DMA4_pat        	0.467611335 	0.578947365 	0.65991903  	0.710526315 	0.720647775 	0.619433205 
 DMA4_pat        	0.71862348  	0.71255061  	0.763157895 	0.70850202  	0.6659919   	0.526315785 
 DMA4_pat        	0.62955465  	0.63360324  	0.716599185 	0.76518219  	0.7611336   	0.769230765 
 DMA4_pat        	0.716646015 	0.584469225 	0.499793475 	0.396530355 	0.311854605 	0.452292435 
 DMA4_pat        	0.4378356   	0.607187115 	0.824039655 	0.830235435 	0.745559685 	0.6464271   
 DMA4_pat        	0.419248245 	0.46468401  	0.59066502  	0.636100785 	0.59273028  	0.660883935 
 DMA4_pat        	0.70425444  	0.743494425 	0.75175548  	0.81164808  	0.875671215 	0.695993385 
 DMA4_pat        	0.66012042  	0.58486239  	0.498853215 	0.432196095 	0.341886465 	0.348337155 
 DMA4_pat        	0.46875     	0.520355505 	0.53110665  	0.64076835  	0.645068805 	0.58056192  
 DMA4_pat        	0.6880734   	0.73107798  	0.733228215 	0.66227064  	0.66012042  	0.642918585 
 DMA4_pat        	0.62141628  	0.75258027  	0.78698394  	0.80633601  	0.84073968  	0.82138761  
 DMA4_pat        	0.592819365 	0.473838015 	0.46131366  	0.45505149  	0.37364319  	0.44670192  
 DMA4_pat        	0.457138875 	0.475925415 	0.651266355 	0.738936825 	0.72641247  	0.707625945 
 DMA4_pat        	0.66170331  	0.64500417  	0.638742    	0.617868075 	0.66170331  	0.642916785 
 DMA4_pat        	0.632479815 	0.713888115 	0.778597275 	0.74311161  	0.930976905 	0.77233509  
;
 DMA5_pat        	0.536089695 	0.44148564  	0.40732305  	0.28644009  	0.32323056  	0.33111423  
 DMA5_pat        	0.3679047   	0.504555015 	0.588647505 	0.622810095 	0.725297835 	0.73843728  
 DMA5_pat        	0.769971975 	0.69376314  	0.69376314  	0.75946041  	0.814646115 	0.806762445 
 DMA5_pat        	0.851436585 	0.814646115 	0.76734408  	0.71478627  	0.79887876  	0.64120533  
 DMA5_pat        	0.55547391  	0.49595886  	0.454077885 	0.436443795 	0.49816311  	0.53122704  
 DMA5_pat        	0.61058046  	0.601763415 	0.745040415 	0.745040415 	0.689933865 	0.68111682  
 DMA5_pat        	0.654665685 	0.68111682  	0.62821455  	0.59515062  	0.63923586  	0.614988975 
 DMA5_pat        	0.65686995  	0.58853784  	0.614988975 	0.740631885 	0.826598085 	0.71418075  
 DMA5_pat        	0.766876695 	0.70477047  	0.4860486   	0.36723672  	0.30783078  	0.30783078  
 DMA5_pat        	0.40774077  	0.44824482  	0.50495049  	0.68316831  	0.66426642  	0.73987398  
 DMA5_pat        	0.69396939  	0.64266426  	0.772277235 	0.55355535  	0.58865886  	0.758775885 
 DMA5_pat        	0.65346534  	0.826282635 	0.818181825 	0.815481555 	0.812781285 	0.6750675   
 DMA5_pat        	0.655253835 	0.45823494  	0.52021842  	0.354191265 	0.34312278  	0.438311685 
 DMA5_pat        	0.45823494  	0.626475795 	0.668536005 	0.75044274  	0.719451    	0.697314045 
 DMA5_pat        	0.768152295 	0.803571435 	0.63311688  	0.66410862  	0.728305785 	0.59327037  
 DMA5_pat        	0.672963405 	0.66632232  	0.60655254  	0.799144035 	0.7216647   	0.653040135 
 DMA5_pat        	0.6371388   	0.55660824  	0.558976785 	0.41686404  	0.305542395 	0.42870678  
 DMA5_pat        	0.41686404  	0.59687352  	0.779251545 	0.83135955  	0.743723355 	0.67740408  
 DMA5_pat        	0.45712932  	0.414495495 	0.549502605 	0.575556615 	0.618190425 	0.603979155 
 DMA5_pat        	0.667929885 	0.81951681  	0.78162009  	0.902415915 	0.878730465 	0.78162009  
 DMA5_pat        	0.702570165 	0.57067974  	0.454007445 	0.426107535 	0.367771395 	0.352553265 
 DMA5_pat        	0.443862015 	0.50219817  	0.598579635 	0.733006425 	0.6898884   	0.58336152  
 DMA5_pat        	0.765979035 	0.613797765 	0.644234025 	0.649306725 	0.644234025 	0.62394318  
 DMA5_pat        	0.593506935 	0.76090632  	0.763442685 	0.88011498  	0.84206967  	0.79387893  
 DMA5_pat        	0.59737737  	0.48324429  	0.44924721  	0.43224867  	0.3569694   	0.446818845 
 DMA5_pat        	0.50024283  	0.5755221   	0.66779991  	0.752792625 	0.755220975 	0.628946085 
 DMA5_pat        	0.721223895 	0.66294318  	0.541525005 	0.55852356  	0.582807195 	0.67022826  
 DMA5_pat        	0.672656625 	0.66779991  	0.755220975 	0.88392423  	0.847498785 	0.78921807  

[CURVES]
;ID              	X-Value     	Y-Value
;PUMP: PUMP: PUMP: PUMP: PUMP: PUMP: PUMP: PUMP: PUMP: PUMP: PUMP: PUMP: PUMP: PUMP: PUMP: PUMP: PUMP: PUMP:  
 6               	16.88889    	156.7       
 6               	19.5        	146.5       
 6               	22.13889    	136.2       
 6               	25.94445    	117.9       
 6               	33.33334    	50          
;PUMP: PUMP: PUMP: PUMP: PUMP: PUMP: PUMP: PUMP: PUMP: PUMP: PUMP: PUMP: PUMP: PUMP: PUMP: PUMP: PUMP: PUMP:  
 7               	18.25       	75          
 7               	23.38889    	64          
 7               	30.63889    	46          
 7               	38.88889    	0           
;PUMP: PUMP: PUMP: PUMP: PUMP: PUMP: PUMP: PUMP: PUMP: PUMP: PUMP: PUMP: PUMP: PUMP: PUMP: PUMP: PUMP: PUMP:  
 4               	30.12222    	221.76      
 4               	37.63612    	202.41      
 4               	43.73056    	182.16      
 4               	47.22223    	160         
;PUMP: PUMP: PUMP: PUMP: PUMP: PUMP: PUMP: PUMP: PUMP: PUMP: PUMP: PUMP: PUMP: PUMP: PUMP: PUMP: PUMP: PUMP:  
 5               	31.91389    	217.27      
 5               	37.87778    	201.91      
 5               	42.55278    	187.15      
 5               	50          	140         
;PUMP: PUMP: PUMP: PUMP: PUMP: PUMP: PUMP: PUMP: PUMP: PUMP: PUMP: PUMP: PUMP: PUMP: PUMP: PUMP: PUMP: PUMP:  
 2               	9.888889    	72.2        
 2               	12.52778    	62.3        
 2               	13.33333    	57.9        
 2               	18.05556    	0           
;PUMP: PUMP: PUMP: PUMP: PUMP: PUMP: PUMP: PUMP: PUMP: PUMP: PUMP: PUMP: PUMP: PUMP: PUMP: PUMP: PUMP: PUMP:  
 3               	11.30278    	76.59       
 3               	12.65833    	68.19       
 3               	14.03056    	60.29       
 3               	18.05556    	0           
;PUMP: PUMP: PUMP: PUMP: PUMP: PUMP: PUMP: PUMP: PUMP: PUMP: PUMP: PUMP: PUMP: PUMP: PUMP: PUMP: PUMP: PUMP:  
 1               	3.997222    	64.86       
 1               	41.90556    	48.48       
 1               	56.13611    	43.96       
 1               	69.46667    	39.56       
 1               	77.29445    	34.53       
 1               	97.66111    	28.83       
 1               	138.8889    	1           
;PUMP: PUMP: PUMP: PUMP: PUMP: PUMP: PUMP: PUMP: PUMP: PUMP: PUMP: PUMP: 
 8               	0           	70          
 8               	60          	50          
 8               	100         	30          
;PUMP: PUMP: PUMP: PUMP: PUMP: PUMP: PUMP: PUMP: PUMP: PUMP: PUMP: PUMP: 
 9               	0           	90          
 9               	30          	70          
 9               	50          	30          
;PUMP: PUMP: PUMP: PUMP: PUMP: PUMP: PUMP: PUMP: PUMP: PUMP: PUMP: PUMP: 
 10              	0           	120         
 10              	30          	110         
 10              	70          	30          
;PUMP: PUMP: PUMP: PUMP: PUMP: PUMP: PUMP: PUMP: PUMP: PUMP: PUMP: PUMP: 
 11              	0           	90          
 11              	30          	50          
 11              	40          	10          

[CONTROLS]
; ----------- Tank 1 ---------------
LINK          PU1 OPEN IF   NODE          T1            BELOW          4 
;LINK          PU1 CLOSED IF NODE          T1            ABOVE          6.3 

LINK          PU2 OPEN IF   NODE          T1            BELOW          1 
;LINK          PU2 CLOSED IF NODE          T1            ABOVE          4.5 

; ----------- Valve to T2 ---
;LINK          V2 OPEN   IF  NODE          T2            BELOW          .5 
;LINK          V2 CLOSED IF  NODE          T2            ABOVE          5.5 

; ----------- T3 ---
;LINK          PU4 OPEN IF   NODE          T3            BELOW          3 
;LINK          PU4 CLOSED IF NODE          T3            ABOVE          5.3 
  
;LINK          PU5 OPEN IF   NODE          T3            BELOW          1 
;LINK          PU5 CLOSED IF NODE          T3            ABOVE          3.5 

; ----------- T4 ---
;LINK          PU6 OPEN IF   NODE          T4            BELOW          2 
;LINK          PU6 CLOSED IF NODE          T4            ABOVE          3.5 

;LINK          PU7 OPEN IF   NODE          T4            BELOW          3 
;LINK          PU7 CLOSED IF NODE          T4            ABOVE          4.5 

; ----------- T5 ---
;LINK          PU8 OPEN IF   NODE          T5            BELOW          1.5 
;LINK          PU8 CLOSED IF NODE          T5            ABOVE          4 

; ----------- T7 ---
;LINK          PU10 OPEN IF  NODE          T7            BELOW          2.5 
;LINK          PU10 CLOSED IF              NODE          T7            ABOVE          4.8 
  
;LINK          PU11 OPEN IF  NODE          T7            BELOW          1 
;LINK          PU11 CLOSED IF              NODE          T7            ABOVE          3 



















[RULES]


























[ENERGY]
 Global Efficiency  	70.0000
 Global Price       	0
 Demand Charge      	0.0000
 Pump 	PU1             	Price     	1.0000
 Pump 	PU2             	Price     	1.0000

[EMITTERS]
;Junction        	Coefficient

[QUALITY]
;Node            	InitQual

[SOURCES]