[TITLE]


[JUNCTIONS]
;ID              	Elev        	Demand      	Pattern         
 J411            	8.95        	.8890401    	DMA1_pat        	;
 J414            	34.36       	.9658645    	DMA1_pat        	;
 J417            	37.38       	1.291233    	DMA1_pat        	;
 J314            	14.94       	1.437699    	DMA1_pat        	;
 J211            	11.27       	1.582595    	DMA1_pat        	;
 J212            	7.87        	.6066978    	DMA1_pat        	;
 J214            	8.67        	.8747806    	DMA1_pat        	;
 J217            	10.98       	1.27852     	DMA1_pat        	;
 J218            	7.68        	8.917417E-02	DMA1_pat        	;
 J110            	15.92       	.781167     	DMA1_pat        	;
 J421            	37.09       	1.037828    	DMA1_pat        	;
 J1153           	22.14       	.439655     	DMA1_pat        	;
 J1154           	14.61       	.46557      	DMA1_pat        	;
 J1155           	15.54       	1.383003    	DMA1_pat        	;
 J1157           	22.21       	1.643489    	DMA1_pat        	;
 J1056           	7.64        	1.12696     	DMA1_pat        	;
 J431            	16.9        	1.055298    	DMA1_pat        	;
 J432            	19.88       	.3459353    	DMA1_pat        	;
 J433            	27.35       	.3100225    	DMA1_pat        	;
 J434            	16.48       	.9722651    	DMA1_pat        	;
 J435            	12.15       	.1345244    	DMA1_pat        	;
 J438            	10.43       	1.50955     	DMA1_pat        	;
 J336            	23.81       	.1632897    	DMA1_pat        	;
 J337            	22.11       	.935067     	DMA1_pat        	;
 J341            	14.89       	.4287795    	DMA1_pat        	;
 J154            	43.69       	.54956      	DMA1_pat        	;
 J155            	44.41       	.1590483    	DMA1_pat        	;
 J156            	56.16       	.2831225    	DMA1_pat        	;
 J159            	37.41       	.4549114    	DMA1_pat        	;
 J160            	43.69       	.5676775    	DMA1_pat        	;
 J177            	13.14       	.8253523    	DMA1_pat        	;
 J179            	15.01       	.6882797    	DMA1_pat        	;
 J1025           	8.61        	.5041625    	DMA1_pat        	;
 J408            	7.93        	.8883706    	DMA1_pat        	;
 J192            	12.4        	1.253851    	DMA1_pat        	;
 J194            	13.46       	1.243345    	DMA1_pat        	;
 J196            	13.35       	1.057619    	DMA1_pat        	;
 J308            	33.24       	1.18838     	DMA1_pat        	;
 J199            	16.26       	.6699712    	DMA1_pat        	;
 J201            	44.86       	.4588259    	DMA1_pat        	;
 J202            	10.41       	1.64229     	DMA1_pat        	;
 J203            	11.03       	1.337646    	DMA1_pat        	;
 J204            	21.51       	1.160168    	DMA1_pat        	;
 J208            	11.25       	.5943106    	DMA1_pat        	;
 J109            	17.47       	.2025833    	DMA1_pat        	;
 J11             	18.43       	.3629998    	DMA1_pat        	;
 J12             	29.27       	.631652     	DMA1_pat        	;
 J13             	32.04       	.6597406    	DMA1_pat        	;
 J24             	34.53       	1.340445    	DMA1_pat        	;
 J39             	45.88       	1.12471     	DMA1_pat        	;
 J269            	56          	0           	                	;
 J273            	56          	0           	                	;
 J274            	56          	0           	                	;
 J276            	56          	0           	                	;
 J280            	56          	0           	                	;
 J285            	56          	0           	                	;

[RESERVOIRS]
;ID              	Head        	Pattern         
 R1              	59          	                	;

[TANKS]
;ID              	Elevation   	InitLevel   	MinLevel    	MaxLevel    	Diameter    	MinVol      	VolCurve
 T1              	51.5        	30          	0           	30          	61.3        	0           	                	;

[PIPES]
;ID              	Node1           	Node2           	Length      	Diameter    	Roughness   	MinorLoss   	Status
 P100            	J159            	J160            	107.88      	406         	76.51422883 	0           	Open  	;
 P1000           	J341            	J204            	109.27      	203         	76.94614787 	0           	Open  	;
 P102            	J109            	J408            	1280.3      	508         	92.94722922 	0           	Open  	;
 P110            	J179            	J177            	425.83      	508         	98.99414116 	0           	Open  	;
 P115            	J408            	J435            	99.88       	102         	91.23151293 	0           	Open  	;
 P117            	J435            	J431            	104         	102         	67.96195457 	0           	Open  	;
 P118            	J431            	J432            	115.91      	102         	84.66525677 	0           	Open  	;
 P12             	J208            	J337            	85.24       	406         	89.66261184 	0           	Open  	;
 P13             	J337            	J24             	62.56       	406         	83.04378688 	0           	Open  	;
 P138            	J203            	J217            	19.28       	254         	72.48528099 	0           	Open  	;
 P139            	J208            	J211            	73.66       	406         	68.718495   	0           	Open  	;
 P14             	J24             	J39             	151.39      	406         	72.00911504 	0           	Open  	;
 P15             	J39             	T1              	395.29      	406         	90.48302153 	0           	Open  	;
 P159            	J204            	J336            	118.78      	203         	80.14718268 	0           	Open  	;
 P17             	J408            	J1025           	32.42       	508         	77.28134214 	0           	Open  	;
 P18             	J1025           	J411            	283.3       	508         	100.3       	0           	Open  	;
 P19             	J411            	J1056           	750.87      	508         	97.7        	0           	Open  	;
 P20             	J1056           	J214            	579.67      	508         	89.67250259 	0           	Open  	;
 P21             	J214            	J212            	176.48      	406         	86.69368007 	0           	Open  	;
 P22             	J159            	J192            	567.3       	406         	81.11362312 	0           	Open  	;
 P23             	J192            	J196            	316.91      	508         	77.16263034 	0           	Open  	;
 P235            	J336            	J337            	92.74       	76          	84.32189979 	0           	Open  	;
 P24             	J177            	J194            	71.05       	508         	88.62083113 	0           	Open  	;
 P25             	J196            	J194            	4.3         	508         	74.37733692 	0           	Open  	;
 P296            	J432            	J433            	231.87      	76          	82.95723709 	0           	Open  	;
 P297            	J411            	J438            	42.53       	406         	73          	0           	Open  	;
 P298            	J438            	J434            	40.11       	305         	84.55106971 	0           	Open  	;
 P301            	J434            	J11             	45.31       	305         	85.18923941 	0           	Open  	;
 P302            	J11             	J433            	178.28      	305         	80.34022293 	0           	Open  	;
 P307            	J433            	J12             	47.3        	305         	60.51223799 	0           	Open  	;
 P310            	J269            	J156            	9           	610         	87.26802597 	0           	Open  	;
 P316            	R1              	J280            	11.62       	610         	70.45194642 	0           	Open  	;
 P319            	J274            	J269            	10.54       	610         	76.59274096 	0           	Open  	;
 P320            	J273            	J269            	11.47       	610         	76.51881041 	0           	Open  	;
 P322            	J280            	J285            	11.5        	610         	89.43312359 	0           	Open  	;
 P323            	J280            	J276            	11.47       	610         	84.68719833 	0           	Open  	;
 P34             	J179            	J110            	98          	508         	78.50596539 	0           	Open  	;
 P443            	J13             	J12             	67.31       	305         	85.57602477 	0           	Open  	;
 P445            	J417            	J421            	7.8         	254         	86.21060196 	0           	Open  	;
 P484            	J438            	J13             	336.57      	203         	79.98       	0           	Open  	;
 P7              	J218            	J211            	60.22       	508         	78.45371492 	0           	Open  	;
 P8              	J218            	J212            	11.35       	406         	76.077444   	0           	Open  	;
 P819            	J1153           	J1157           	8.02        	203         	105.0732947 	0           	Open  	;
 P83             	J155            	J160            	15.14       	610         	75.66382855 	0           	Open  	;
 P892            	J414            	J13             	30.39       	254         	69.84847395 	0           	Open  	;
 P9              	J212            	J217            	49.95       	254         	66.74918886 	0           	Open  	;
 P96             	J414            	J417            	53.72       	254         	87.90275096 	0           	Open  	;
 P97             	J154            	J155            	24.41       	610         	88.89531663 	0           	Open  	;
 P970            	J1154           	J199            	165.04      	203         	87.79507815 	0           	Open  	;
 P98             	J156            	J154            	174.53      	610         	71.75234195 	0           	Open  	;
 P989            	J1153           	J1155           	91.59       	51          	82.07033197 	0           	Open  	;
 P99             	J110            	J109            	452.37      	508         	96.63823156 	0           	Open  	;
 P990            	J1155           	J1154           	78.87       	102         	85.78766419 	0           	Open  	;
 P991            	J214            	J202            	20.25       	203         	74.3133426  	0           	Open  	;
 P992            	J202            	J314            	69.15       	203         	80.64075409 	0           	Open  	;
 P993            	J314            	J199            	63.52       	203         	80.23202717 	0           	Open  	;
 P994            	J199            	J1157           	115.39      	203         	83.09435479 	0           	Open  	;
 P995            	J1157           	J201            	228.99      	152         	82.49961346 	0           	Open  	;
 P997            	J201            	J308            	154.87      	203         	96.61744961 	0           	Open  	;
 P998            	J308            	J204            	107.98      	203         	90.64077339 	0           	Open  	;
 P999            	J203            	J341            	81.67       	254         	68.70464794 	0           	Open  	;

[PUMPS]
;ID              	Node1           	Node2           	Parameters
 PU1             	J285            	J273            	HEAD 8	;
 PU2             	J280            	J269            	HEAD 8	;

[VALVES]
;ID              	Node1           	Node2           	Diameter    	Type	Setting     	MinorLoss   

[TAGS]

[DEMANDS]
;Junction        	Demand      	Pattern         	Category

[STATUS]
;ID              	Status/Setting

[PATTERNS]
;ID              	Multipliers
;
 DMA1_pat        	5.691504    	4.6466868   	4.3854825   	3.604161    	3.09779115  	3.34524795  
 DMA1_pat        	3.84703515  	4.71542475  	5.5013289   	6.80505915  	7.0364769   	6.7088259   
 DMA1_pat        	7.9690221   	7.19915685  	7.70552655  	7.3847493   	8.1477408   	7.2426909   
 DMA1_pat        	8.06983785  	7.79259465  	8.66785815  	7.40766195  	6.7042434   	6.32389335  
 DMA1_pat        	5.2252044   	5.06709855  	4.45588455  	4.5465063   	4.7547432   	5.3389635   
 DMA1_pat        	6.62501925  	6.2239704   	6.7599876   	7.2593706   	8.03061855  	7.0144995   
 DMA1_pat        	6.9335184   	6.53825385  	6.21432975  	6.5228289   	5.71880295  	5.7901434   
 DMA1_pat        	5.8209933   	7.11668985  	7.0453494   	6.65779725  	7.41747645  	6.92194965  
 DMA1_pat        	7.2708954   	6.19247205  	4.6304505   	4.5095511   	3.09260895  	2.82421215  
 DMA1_pat        	4.33303785  	4.0670589   	5.45014905  	6.9928266   	7.39904895  	6.434271    
 DMA1_pat        	6.80905935  	6.91061505  	6.7727895   	6.26259375  	6.26742975  	7.142742    
 DMA1_pat        	6.81873135  	7.88264685  	7.5779802   	7.88264685  	8.02047225  	8.45571045  
 DMA1_pat        	6.04884255  	4.43633715  	5.131584    	3.6476118   	3.1782714   	4.63887405  
 DMA1_pat        	3.9572595   	6.4149669   	6.71098245  	6.68761275  	7.9456785   	6.74603685  
 DMA1_pat        	7.54255215  	8.08394895  	7.13747835  	6.8570427   	6.8122509   	5.49576105  
 DMA1_pat        	6.8219883   	5.69829795  	7.4334939   	8.32154025  	6.7888812   	7.46270595  
 DMA1_pat        	6.01325505  	5.03529285  	5.1908778   	3.5946171   	2.9924835   	4.53216765  
 DMA1_pat        	4.2957594   	5.39495655  	8.96330625  	8.9673474   	6.82552935  	5.7990732   
 DMA1_pat        	4.28969775  	4.200792    	6.2941161   	6.91039395  	6.70631505  	6.18904575  
 DMA1_pat        	6.82552935  	8.32884315  	9.0279648   	8.21771115  	8.4945309   	6.91039395  
 DMA1_pat        	7.16292135  	5.4775281   	5.3349507   	4.19645895  	3.5601804   	3.3814266   
 DMA1_pat        	4.5241743   	5.09874015  	5.6456418   	7.60767795  	6.2159517   	6.7820055   
 DMA1_pat        	6.928839    	6.39257745  	6.19892745  	6.59686755  	6.5628192   	6.31809675  
 DMA1_pat        	6.04145385  	7.0394961   	7.72471905  	8.8546986   	8.8334184   	7.52042895  
 DMA1_pat        	7.1409849   	4.57925235  	4.46544345  	4.2936957   	4.0184853   	4.3309422   
 DMA1_pat        	4.69926885  	5.2227894   	5.90771145  	7.54862745  	7.6996827   	6.44778585  
 DMA1_pat        	7.3210098   	7.0954614   	5.48144565  	5.77734855  	5.92426545  	6.24499935  
 DMA1_pat        	5.5973238   	7.66864395  	7.16995455  	7.7452062   	9.0446958   	8.5749759   
;
 DMA2_pat        	6.1842105   	4.5394737   	4.44736845  	3.381579    	3.1578948   	3.13157895  
 DMA2_pat        	4.14473685  	4.48684215  	4.9868421   	5.8157895   	6.84210525  	7.2763158   
 DMA2_pat        	6.69736845  	7.9210527   	6.6842106   	8.15789475  	7.71052635  	8.30263155  
 DMA2_pat        	8.07894735  	7.93421055  	8.3552631   	8.3684211   	6.77631585  	6.61842105  
 DMA2_pat        	5.67746055  	4.70813805  	4.70813805  	4.2607584   	4.28206215  	4.74009375  
 DMA2_pat        	5.7946314   	6.23135925  	6.83851725  	7.74392835  	7.7119728   	7.9569663   
 DMA2_pat        	6.6254793   	7.3604601   	7.1154666   	5.9544099   	6.3485301   	6.16744785  
 DMA2_pat        	5.8159353   	5.96506185  	7.00894755  	6.50830845  	7.1580741   	7.3178526   
 DMA2_pat        	6.81082545  	7.3368099   	4.9901097   	3.73583895  	3.15590715  	2.76479055  
 DMA2_pat        	3.47959005  	4.61247975  	5.28681885  	6.25786725  	6.6894444   	7.647006    
 DMA2_pat        	6.6624708   	6.51411615  	7.5660852   	5.61050175  	6.55457655  	6.4466823   
 DMA2_pat        	7.1614818   	8.40226575  	7.71443985  	7.90325475  	8.48318655  	8.21345085  
 DMA2_pat        	6.6520308   	5.01646545  	4.9286499   	4.1602635   	3.61141605  	4.37980245  
 DMA2_pat        	3.94072455  	6.54226125  	6.0592755   	8.1119649   	7.69484085  	6.4324917   
 DMA2_pat        	6.9703623   	6.7618002   	7.0801317   	7.0801317   	7.05817785  	5.38968165  
 DMA2_pat        	5.8068057   	5.65312845  	7.5411636   	8.25466515  	6.93743145  	7.93633365  
 DMA2_pat        	7.5185274   	5.080086    	4.8529764   	3.80109975  	3.3707865   	3.9445374   
 DMA2_pat        	4.8410232   	6.4188381   	8.12813775  	8.4628257   	6.8252451   	5.9287593   
 DMA2_pat        	4.2553191   	4.1955534   	5.83313415  	6.239541    	5.8689936   	5.62993065  
 DMA2_pat        	6.59813535  	8.11618455  	8.11618455  	8.82142005  	8.5823571   	8.57040405  
 DMA2_pat        	6.70350795  	5.74243155  	5.02162425  	4.3248438   	3.73618455  	3.5439693   
 DMA2_pat        	4.67323395  	4.6612206   	5.9346468   	7.17203265  	5.8625661   	5.8625661   
 DMA2_pat        	6.811629    	6.47525235  	6.8957232   	7.16001915  	7.0759251   	6.8236425   
 DMA2_pat        	6.60740025  	7.34022105  	8.06102835  	7.96492065  	8.421432    	7.1239788   
 DMA2_pat        	5.9427819   	4.651884    	4.94262675  	4.4541789   	3.26794845  	5.12870205  
 DMA2_pat        	5.14033185  	5.25662895  	5.8264848   	6.0125601   	7.7919057   	6.6289347   
 DMA2_pat        	6.8266398   	7.2918282   	5.896263    	6.03581955  	5.88463335  	6.5940456   
 DMA2_pat        	6.25678395  	6.977826    	7.8267948   	8.1756861   	9.29213835  	7.89657315  
;
 DMA3_pat        	10.8890058  	9.6265125   	8.4429249   	7.1015256   	6.4702788   	7.1804313   
 DMA3_pat        	8.2062072   	9.4687008   	11.2046292  	13.4928984  	15.0710154  	14.5975803  
 DMA3_pat        	13.4139927  	14.676486   	14.1241452  	15.2288268  	14.2819569  	16.7280378  
 DMA3_pat        	17.4381903  	14.755392   	14.5186743  	14.9921094  	13.4139927  	14.676486   
 DMA3_pat        	11.7402711  	8.5264539   	8.8543944   	8.2641015   	8.6576301   	9.8382159   
 DMA3_pat        	11.0843901  	13.5767382  	15.0852645  	14.8885002  	15.8723217  	13.6423263  
 DMA3_pat        	13.9046787  	12.9208569  	11.8714473  	11.9370354  	12.7896807  	12.9208569  
 DMA3_pat        	12.8552688  	13.6423263  	14.5605597  	13.5767382  	13.8390906  	15.1508526  
 DMA3_pat        	14.281872   	14.0398062  	10.0860678  	7.9074771   	6.2937063   	5.7288864   
 DMA3_pat        	8.3916084   	8.6336739   	9.9246906   	13.9591179  	11.7805272  	13.8784293  
 DMA3_pat        	13.8784293  	15.3308229  	13.8784293  	11.61915    	14.1204948  	14.0398062  
 DMA3_pat        	13.3136094  	16.4604627  	14.7660033  	17.1866595  	16.2990855  	14.2011834  
 DMA3_pat        	12.1205358  	9.7098213   	9.1071429   	7.8348213   	7.3660713   	8.2366071   
 DMA3_pat        	8.1696429   	13.2589287  	12.0535713  	14.0625     	13.1919642  	12.3883929  
 DMA3_pat        	14.1964287  	16.2053571  	15.2678571  	16.40625    	15.2678571  	11.9866071  
 DMA3_pat        	13.59375    	12.1205358  	13.7946429  	16.2723213  	14.0625     	13.3258929  
 DMA3_pat        	12.4541283  	11.4908256  	9.0825687   	7.3623852   	6.6055047   	8.8073394   
 DMA3_pat        	8.119266    	12.3853212  	17.821101   	18.9220182  	14.7935781  	11.2844037  
 DMA3_pat        	9.1513761   	8.0504586   	13.4174313  	12.9357798  	11.8348623  	11.1467889  
 DMA3_pat        	12.4541283  	16.5137616  	17.821101   	17.0642202  	15.0688074  	15.4128441  
 DMA3_pat        	14.9105367  	11.8538766  	9.7664016   	7.6043739   	6.7097415   	7.5298212   
 DMA3_pat        	8.9463222   	11.2574553  	10.5119283  	14.3141154  	12.748509   	11.6302188  
 DMA3_pat        	13.4940357  	13.3449303  	12.748509   	12.8230617  	13.419483   	13.7176938  
 DMA3_pat        	12.002982   	14.6123259  	16.998012   	17.3707752  	16.8489066  	14.835984   
 DMA3_pat        	13.283868   	10.5552897  	10.2680709  	9.1910004   	7.1804691   	9.5500239   
 DMA3_pat        	10.5552897  	11.2733364  	12.2067975  	12.7094304  	16.012446   	14.3609382  
 DMA3_pat        	12.2786022  	12.1349928  	12.4222116  	12.2786022  	14.3609382  	11.4887505  
 DMA3_pat        	11.6323599  	13.3556727  	13.5710865  	18.3101964  	16.5150789  	14.5045476  
;
 DMA4_pat        	10.4905062  	8.9715189   	8.7341772   	6.3607596   	6.3607596   	6.5506329   
 DMA4_pat        	8.4968355   	8.6392404   	11.4873417  	13.2911391  	13.8132912  	14.8101267  
 DMA4_pat        	15.2373417  	15.2848101  	14.3829114  	13.7183544  	16.5664557  	16.5664557  
 DMA4_pat        	14.9050632  	16.1867088  	16.6139241  	14.0506329  	15.4746834  	13.006329   
 DMA4_pat        	9.9464823   	9.006657    	8.7717009   	8.693382    	8.5367445   	10.6513509  
 DMA4_pat        	12.6876387  	14.1756951  	15.2721576  	14.3323326  	15.2329983  	15.8987076  
 DMA4_pat        	15.3896358  	12.5310012  	11.9827698  	11.6694948  	12.0219294  	11.8652916  
 DMA4_pat        	11.3562198  	11.8652916  	12.5701605  	15.4287951  	13.9798983  	16.133664   
 DMA4_pat        	14.6271051  	13.3279872  	10.6816359  	7.9390536   	6.4955895   	5.1483561   
 DMA4_pat        	8.4683241   	8.7570168   	10.9703289  	13.8572574  	12.2694468  	15.0120288  
 DMA4_pat        	15.4450683  	13.4723337  	13.9053729  	13.2798717  	11.5958301  	13.7129109  
 DMA4_pat        	13.4242182  	16.6479552  	14.7714516  	17.5621491  	15.0120288  	13.6166799  
 DMA4_pat        	13.4412954  	9.7570851   	10.6072875  	8.2995951   	6.9230769   	8.4210525   
 DMA4_pat        	9.3522267   	11.5789473  	13.1983806  	14.2105263  	14.4129555  	12.3886641  
 DMA4_pat        	14.3724696  	14.2510122  	15.2631579  	14.1700404  	13.319838   	10.5263157  
 DMA4_pat        	12.591093   	12.6720648  	14.3319837  	15.3036438  	15.222672   	15.3846153  
 DMA4_pat        	14.3329203  	11.6893845  	9.9958695   	7.9306071   	6.2370921   	9.0458487   
 DMA4_pat        	8.756712    	12.1437423  	16.4807931  	16.6047087  	14.9111937  	12.928542   
 DMA4_pat        	8.3849649   	9.2936802   	11.8133004  	12.7220157  	11.8546056  	13.2176787  
 DMA4_pat        	14.0850888  	14.8698885  	15.0351096  	16.2329616  	17.5134243  	13.9198677  
 DMA4_pat        	13.2024084  	11.6972478  	9.9770643   	8.6439219   	6.8377293   	6.9667431   
 DMA4_pat        	9.375       	10.4071101  	10.622133   	12.815367   	12.9013761  	11.6112384  
 DMA4_pat        	13.761468   	14.6215596  	14.6645643  	13.2454128  	13.2024084  	12.8583717  
 DMA4_pat        	12.4283256  	15.0516054  	15.7396788  	16.1267202  	16.8147936  	16.4277522  
 DMA4_pat        	11.8563873  	9.4767603   	9.2262732   	9.1010298   	7.4728638   	8.9340384   
 DMA4_pat        	9.1427775   	9.5185083   	13.0253271  	14.7787365  	14.5282494  	14.1525189  
 DMA4_pat        	13.2340662  	12.9000834  	12.77484    	12.3573615  	13.2340662  	12.8583357  
 DMA4_pat        	12.6495963  	14.2777623  	15.5719455  	14.8622322  	18.6195381  	15.4467018  
;
 DMA5_pat        	10.4905062  	8.9715189   	8.7341772   	6.3607596   	6.3607596   	6.5506329   
 DMA5_pat        	8.4968355   	8.6392404   	11.4873417  	13.2911391  	13.8132912  	14.8101267  
 DMA5_pat        	15.2373417  	15.2848101  	14.3829114  	13.7183544  	16.5664557  	16.5664557  
 DMA5_pat        	14.9050632  	16.1867088  	16.6139241  	14.0506329  	15.4746834  	13.006329   
 DMA5_pat        	9.9464823   	9.006657    	8.7717009   	8.693382    	8.5367445   	10.6513509  
 DMA5_pat        	12.6876387  	14.1756951  	15.2721576  	14.3323326  	15.2329983  	15.8987076  
 DMA5_pat        	15.3896358  	12.5310012  	11.9827698  	11.6694948  	12.0219294  	11.8652916  
 DMA5_pat        	11.3562198  	11.8652916  	12.5701605  	15.4287951  	13.9798983  	16.133664   
 DMA5_pat        	14.6271051  	13.3279872  	10.6816359  	7.9390536   	6.4955895   	5.1483561   
 DMA5_pat        	8.4683241   	8.7570168   	10.9703289  	13.8572574  	12.2694468  	15.0120288  
 DMA5_pat        	15.4450683  	13.4723337  	13.9053729  	13.2798717  	11.5958301  	13.7129109  
 DMA5_pat        	13.4242182  	16.6479552  	14.7714516  	17.5621491  	15.0120288  	13.6166799  
 DMA5_pat        	13.4412954  	9.7570851   	10.6072875  	8.2995951   	6.9230769   	8.4210525   
 DMA5_pat        	9.3522267   	11.5789473  	13.1983806  	14.2105263  	14.4129555  	12.3886641  
 DMA5_pat        	14.3724696  	14.2510122  	15.2631579  	14.1700404  	13.319838   	10.5263157  
 DMA5_pat        	12.591093   	12.6720648  	14.3319837  	15.3036438  	15.222672   	15.3846153  
 DMA5_pat        	14.3329203  	11.6893845  	9.9958695   	7.9306071   	6.2370921   	9.0458487   
 DMA5_pat        	8.756712    	12.1437423  	16.4807931  	16.6047087  	14.9111937  	12.928542   
 DMA5_pat        	8.3849649   	9.2936802   	11.8133004  	12.7220157  	11.8546056  	13.2176787  
 DMA5_pat        	14.0850888  	14.8698885  	15.0351096  	16.2329616  	17.5134243  	13.9198677  
 DMA5_pat        	13.2024084  	11.6972478  	9.9770643   	8.6439219   	6.8377293   	6.9667431   
 DMA5_pat        	9.375       	10.4071101  	10.622133   	12.815367   	12.9013761  	11.6112384  
 DMA5_pat        	13.761468   	14.6215596  	14.6645643  	13.2454128  	13.2024084  	12.8583717  
 DMA5_pat        	12.4283256  	15.0516054  	15.7396788  	16.1267202  	16.8147936  	16.4277522  
 DMA5_pat        	11.8563873  	9.4767603   	9.2262732   	9.1010298   	7.4728638   	8.9340384   
 DMA5_pat        	9.1427775   	9.5185083   	13.0253271  	14.7787365  	14.5282494  	14.1525189  
 DMA5_pat        	13.2340662  	12.9000834  	12.77484    	12.3573615  	13.2340662  	12.8583357  
 DMA5_pat        	12.6495963  	14.2777623  	15.5719455  	14.8622322  	18.6195381  	15.4467018  

[CURVES]
;ID              	X-Value     	Y-Value
;PUMP: PUMP: PUMP: PUMP: PUMP: PUMP: PUMP: PUMP: PUMP: PUMP: PUMP: PUMP: PUMP: PUMP: PUMP: PUMP: PUMP: PUMP: PUMP:  
 6               	16.88889    	156.7       
 6               	19.5        	146.5       
 6               	22.13889    	136.2       
 6               	25.94445    	117.9       
 6               	33.33334    	50          
;PUMP: PUMP: PUMP: PUMP: PUMP: PUMP: PUMP: PUMP: PUMP: PUMP: PUMP: PUMP: PUMP: PUMP: PUMP: PUMP: PUMP: PUMP: PUMP:  
 7               	18.25       	75          
 7               	23.38889    	64          
 7               	30.63889    	46          
 7               	38.88889    	0           
;PUMP: PUMP: PUMP: PUMP: PUMP: PUMP: PUMP: PUMP: PUMP: PUMP: PUMP: PUMP: PUMP: PUMP: PUMP: PUMP: PUMP: PUMP: PUMP:  
 4               	30.12222    	221.76      
 4               	37.63612    	202.41      
 4               	43.73056    	182.16      
 4               	47.22223    	160         
;PUMP: PUMP: PUMP: PUMP: PUMP: PUMP: PUMP: PUMP: PUMP: PUMP: PUMP: PUMP: PUMP: PUMP: PUMP: PUMP: PUMP: PUMP: PUMP:  
 5               	31.91389    	217.27      
 5               	37.87778    	201.91      
 5               	42.55278    	187.15      
 5               	50          	140         
;PUMP: PUMP: PUMP: PUMP: PUMP: PUMP: PUMP: PUMP: PUMP: PUMP: PUMP: PUMP: PUMP: PUMP: PUMP: PUMP: PUMP: PUMP: PUMP:  
 2               	9.888889    	72.2        
 2               	12.52778    	62.3        
 2               	13.33333    	57.9        
 2               	18.05556    	0           
;PUMP: PUMP: PUMP: PUMP: PUMP: PUMP: PUMP: PUMP: PUMP: PUMP: PUMP: PUMP: PUMP: PUMP: PUMP: PUMP: PUMP: PUMP: PUMP:  
 3               	11.30278    	76.59       
 3               	12.65833    	68.19       
 3               	14.03056    	60.29       
 3               	18.05556    	0           
;PUMP: PUMP: PUMP: PUMP: PUMP: PUMP: PUMP: PUMP: PUMP: PUMP: PUMP: PUMP: PUMP: PUMP: PUMP: PUMP: PUMP: PUMP: PUMP:  
 1               	3.997222    	64.86       
 1               	41.90556    	48.48       
 1               	56.13611    	43.96       
 1               	69.46667    	39.56       
 1               	77.29445    	34.53       
 1               	97.66111    	28.83       
 1               	138.8889    	1           
;PUMP: PUMP: PUMP: PUMP: PUMP: PUMP: PUMP: PUMP: PUMP: PUMP: PUMP: PUMP: PUMP: 
 8               	0           	70          
 8               	60          	50          
 8               	100         	30          
;PUMP: PUMP: PUMP: PUMP: PUMP: PUMP: PUMP: PUMP: PUMP: PUMP: PUMP: PUMP: PUMP: 
 9               	0           	90          
 9               	30          	70          
 9               	50          	30          
;PUMP: PUMP: PUMP: PUMP: PUMP: PUMP: PUMP: PUMP: PUMP: PUMP: PUMP: PUMP: PUMP: 
 10              	0           	120         
 10              	30          	110         
 10              	70          	30          
;PUMP: PUMP: PUMP: PUMP: PUMP: PUMP: PUMP: PUMP: PUMP: PUMP: PUMP: PUMP: PUMP: 
 11              	0           	90          
 11              	30          	50          
 11              	40          	10          

[CONTROLS]
; ----------- Tank 1 ---------------
LINK          PU1 OPEN IF   NODE          T1            BELOW          4 
;LINK          PU1 CLOSED IF NODE          T1            ABOVE          6.3 

LINK          PU2 OPEN IF   NODE          T1            BELOW          1 
;LINK          PU2 CLOSED IF NODE          T1            ABOVE          4.5 

; ----------- Valve to T2 ---
;LINK          V2 OPEN   IF  NODE          T2            BELOW          .5 
;LINK          V2 CLOSED IF  NODE          T2            ABOVE          5.5 

; ----------- T3 ---
;LINK          PU4 OPEN IF   NODE          T3            BELOW          3 
;LINK          PU4 CLOSED IF NODE          T3            ABOVE          5.3 
  
;LINK          PU5 OPEN IF   NODE          T3            BELOW          1 
;LINK          PU5 CLOSED IF NODE          T3            ABOVE          3.5 

; ----------- T4 ---
;LINK          PU6 OPEN IF   NODE          T4            BELOW          2 
;LINK          PU6 CLOSED IF NODE          T4            ABOVE          3.5 

;LINK          PU7 OPEN IF   NODE          T4            BELOW          3 
;LINK          PU7 CLOSED IF NODE          T4            ABOVE          4.5 

; ----------- T5 ---
;LINK          PU8 OPEN IF   NODE          T5            BELOW          1.5 
;LINK          PU8 CLOSED IF NODE          T5            ABOVE          4 

; ----------- T7 ---
;LINK          PU10 OPEN IF  NODE          T7            BELOW          2.5 
;LINK          PU10 CLOSED IF              NODE          T7            ABOVE          4.8 
  
;LINK          PU11 OPEN IF  NODE          T7            BELOW          1 
;LINK          PU11 CLOSED IF              NODE          T7            ABOVE          3 




















[RULES]



























[ENERGY]
 Global Efficiency  	70.0000
 Global Price       	0
 Demand Charge      	0.0000
 Pump 	PU1             	Price     	1.0000
 Pump 	PU2             	Price     	1.0000

[EMITTERS]
;Junction        	Coefficient
