[TITLE]


[JUNCTIONS]
;ID              	Elev        	Demand      	Pattern         
 J511            	105.08      	1.175912    	DMA2_pat        	;
 J411            	8.95        	.8890401    	DMA1_pat        	;
 J414            	34.36       	.9658645    	DMA1_pat        	;
 J415            	65          	0           	                	;
 J416            	42.6        	0           	                	;
 J417            	37.38       	1.291233    	DMA1_pat        	;
 J419            	40.5        	0           	                	;
 J314            	14.94       	1.437699    	DMA1_pat        	;
 J211            	11.27       	1.582595    	DMA1_pat        	;
 J212            	7.87        	.6066978    	DMA1_pat        	;
 J214            	8.67        	.8747806    	DMA1_pat        	;
 J217            	10.98       	1.27852     	DMA1_pat        	;
 J218            	7.68        	8.917417E-02	DMA1_pat        	;
 J219            	52          	.9874303    	DMA5_pat        	;
 J110            	15.92       	.781167     	DMA1_pat        	;
 J420            	39.99       	0           	                	;
 J421            	37.09       	1.037828    	DMA1_pat        	;
 J422            	38.81       	0           	                	;
 J1153           	22.14       	.439655     	DMA1_pat        	;
 J1154           	14.61       	.46557      	DMA1_pat        	;
 J1155           	15.54       	1.383003    	DMA1_pat        	;
 J425            	64.42       	0           	                	;
 J426            	72.71       	0           	                	;
 J1157           	22.21       	1.643489    	DMA1_pat        	;
 J427            	67.65       	0           	                	;
 J1056           	7.64        	1.12696     	DMA1_pat        	;
 J327            	49.68       	2.617306E-02	DMA4_pat        	;
 J328            	45.69       	.1667536    	DMA4_pat        	;
 J329            	44.05       	.1717045    	DMA4_pat        	;
 J53             	85          	1.580952    	DMA5_pat        	;
 J56             	72          	.2713695    	DMA5_pat        	;
 J57             	59          	1.077645    	DMA5_pat        	;
 J58             	76          	.6834553    	DMA5_pat        	;
 J59             	57          	.6879447    	DMA5_pat        	;
 J431            	16.9        	1.055298    	DMA1_pat        	;
 J432            	19.88       	.3459353    	DMA1_pat        	;
 J433            	27.35       	.3100225    	DMA1_pat        	;
 J434            	16.48       	.9722651    	DMA1_pat        	;
 J435            	12.15       	.1345244    	DMA1_pat        	;
 J438            	10.43       	1.50955     	DMA1_pat        	;
 J330            	58.25       	.6315042    	DMA4_pat        	;
 J331            	59.26       	.482775     	DMA4_pat        	;
 J332            	44.18       	1.324       	DMA1_pat        	;
 J336            	23.81       	.1632897    	DMA1_pat        	;
 J337            	22.11       	.935067     	DMA1_pat        	;
 J233            	74.23       	0           	                	;
 J234            	64.06       	.03         	DMA2_pat        	;
 J60             	55          	.7716334    	DMA5_pat        	;
 J134            	80.7        	.5891212    	DMA2_pat        	;
 J135            	70          	.6747236    	DMA2_pat        	;
 J64             	82          	0	        	                    ;
 J66             	72          	1.631797    	DMA5_pat        	;
 J67             	81          	.1015269    	DMA5_pat        	;
 J441            	69          	0           	                	;
 J341            	14.89       	.4287795    	DMA1_pat        	;
 J242            	65          	.6507859    	DMA5_pat        	;
 J243            	60          	.1789589    	DMA5_pat        	;
 J244            	70          	1.306659    	DMA5_pat        	;
 J245            	71          	.7660681    	DMA5_pat        	;
 J352            	47.55       	.7570131    	DMA4_pat        	;
 J250            	67          	.1494022    	DMA5_pat        	;
 J154            	43.69       	.54956      	DMA1_pat        	;
 J155            	44.41       	.1590483    	DMA1_pat        	;
 J156            	56.16       	.2831225    	DMA1_pat        	;
 J84             	43.82       	.1632164    	DMA5_pat        	;
 J159            	37.41       	.4549114    	DMA1_pat        	;
 J86             	50          	1.454245    	DMA5_pat        	;
 J87             	42.63       	1.251146    	DMA5_pat        	;
 J362            	43.66       	.1498275    	DMA4_pat        	;
 J363            	72.23       	0           	                	;
 J364            	65          	0           	                	;
 J1208           	42.74       	.392137     	DMA4_pat        	;
 J160            	43.69       	.5676775    	DMA1_pat        	;
 J371            	68.81       	0.5           	                	;
 J177            	13.14       	.8253523    	DMA1_pat        	;
 J179            	15.01       	.6882797    	DMA1_pat        	;
 J580            	113.08      	1.158803    	DMA2_pat        	;
 J382            	70.42       	.848447     	DMA4_pat        	;
 J384            	42.51       	0           	                	;
 J1025           	8.61        	.5041625    	DMA1_pat        	;
 J494            	112.76      	.3177222    	DMA2_pat        	;
 J496            	106.34      	1.245693    	DMA2_pat        	;
 J497            	112.63      	1.023225    	DMA2_pat        	;
 J498            	90.12       	1.303565    	DMA2_pat        	;
 J503            	99.65       	.1097517    	DMA2_pat        	;
 J509            	99.94       	.6326745    	DMA2_pat        	;
 J408            	7.93        	.8883706    	DMA1_pat        	;
 J297            	99.05       	.9350156    	DMA4_pat        	;
 J192            	12.4        	1.253851    	DMA1_pat        	;
 J194            	13.46       	1.243345    	DMA1_pat        	;
 J196            	13.35       	1.057619    	DMA1_pat        	;
 J308            	33.24       	1.18838     	DMA1_pat        	;
 J199            	16.26       	.6699712    	DMA1_pat        	;
 J201            	44.86       	.4588259    	DMA1_pat        	;
 J202            	10.41       	1.64229     	DMA1_pat        	;
 J203            	11.03       	1.337646    	DMA1_pat        	;
 J204            	21.51       	1.160168    	DMA1_pat        	;
 J208            	11.25       	.5943106    	DMA1_pat        	;
 J109            	17.47       	.2025833    	DMA1_pat        	;
 J11             	18.43       	.3629998    	DMA1_pat        	;
 J12             	29.27       	.631652     	DMA1_pat        	;
 J13             	32.04       	.6597406    	DMA1_pat        	;
 J14             	37.91       	0           	                	;
 J22             	82.74       	0           	                	;
 J23             	75.96       	0           	                	;
 J24             	34.53       	1.340445    	DMA1_pat        	;
 J39             	45.88       	1.12471     	DMA1_pat        	;
 J197            	41.86       	.1768897    	DMA3_pat        	;
 J216            	53.06       	1.415167    	DMA3_pat        	;
 J227            	52.89       	.8299486    	DMA3_pat        	;
 J238            	44.16       	.3129586    	DMA3_pat        	;
 J256            	40          	0           	                	;
 J269            	56          	0           	                	;
 J273            	56          	0           	                	;
 J274            	56          	0           	                	;
 J276            	56          	0           	                	;
 J280            	56          	0           	                	;
 J285            	56          	0           	                	;
 J287            	40          	0           	                	;
 J288            	40          	0           	                	;
 J289            	40          	0           	                	;
 J290            	40          	0           	                	;
 J291            	65          	0           	                	;
 J292            	40          	0           	                	;
 J299            	40          	0           	                	;
 J300            	40          	0           	                	;
 J301            	44          	0           	                	;
 J302            	44          	0           	                	;
 J304            	44          	0           	                	;
 J306            	44          	0           	                	;
 J307            	44          	0           	                	;
 J309            	44          	0           	                	;
 J317            	44          	0           	                	;
 J323            	44          	0           	                	;

[RESERVOIRS]
;ID              	Head        	Pattern         
 R1              	59          	                	;

[TANKS]
;ID              	Elevation   	InitLevel   	MinLevel    	MaxLevel    	Diameter    	MinVol      	VolCurve
 T3              	112.9       	3           	0           	6.75        	13.73       	0           	                	;
 T1              	71.5        	3           	0           	6.5         	31.3        	0           	                	;
 T7              	102         	2.5         	0           	5           	7.14        	0           	                	;
 T6              	101.5       	5.2         	0           	5.5         	8.33        	0           	                	;
 T5              	105.8       	1.0         	0           	4.5         	11.89       	0           	                	;
 T2              	65          	.5          	0           	5.9         	20.78       	0           	                	;
 T4              	132.5       	2.5         	0           	4.7         	11.64       	0           	                	;

[PIPES]
;ID              	Node1           	Node2           	Length      	Diameter    	Roughness   	MinorLoss   	Status
 P100            	J159            	J160            	107.88      	406         	76.51422883 	0           	Open  	;
 P1000           	J341            	J204            	109.27      	203         	76.94614787 	0           	Open  	;
 P1016           	J22             	J233            	164.77      	305         	85.23817366 	0           	Open  	;
 P102            	J109            	J408            	1280.3      	508         	92.94722922 	0           	Open  	;
 P1044           	T5              	J64             	65.8        	203         	100.2182444 	0           	Open  	;
 P1045           	J64             	J53             	68.63       	203         	118.82139   	0           	Open  	;
 P110            	J179            	J177            	425.83      	508         	98.99414116 	0           	Open  	;
 P115            	J408            	J435            	99.88       	102         	91.23151293 	0           	Open  	;
 P117            	J435            	J431            	104         	102         	67.96195457 	0           	Open  	;
 P118            	J431            	J432            	115.91      	102         	84.66525677 	0           	Open  	;
 P12             	J208            	J337            	85.24       	406         	89.66261184 	0           	Open  	;
 P13             	J337            	J24             	62.56       	406         	83.04378688 	0           	Open  	;
 P138            	J203            	J217            	19.28       	254         	72.48528099 	0           	Open  	;
 P139            	J208            	J211            	73.66       	406         	68.718495   	0           	Open  	;
 P14             	J24             	J39             	151.39      	406         	72.00911504 	0           	Open  	;
 P144            	J382            	T6              	130.79      	76          	99.91906661 	0           	Open  	;
 P148            	J233            	J234            	561.69      	305         	96.43940809 	0           	Open  	;
 P15             	J39             	T1              	395.29      	406         	90.48302153 	0           	Open  	;
 P154            	J245            	J66             	170.64      	152         	108.8315571 	0           	Open  	;
 P155            	J60             	J219            	59.38       	101.6       	105.7092049 	0           	Open  	;
 P156            	J242            	J243            	80.34       	102         	110.8685183 	0           	Open  	;
 P157            	J244            	J245            	232.93      	102         	102.9010036 	0           	Open  	;
 P159            	J204            	J336            	118.78      	203         	80.14718268 	0           	Open  	;
 P165            	J135            	J234            	143.81      	305         	92.93426098 	0           	Open  	;
 P166            	J352            	J382            	235         	101.6       	93.60266001 	0           	Open  	;
 P17             	J408            	J1025           	32.42       	508         	77.28134214 	0           	Open  	;
 P18             	J1025           	J411            	283.3       	508         	100.3       	0           	Open  	;
 P184            	J1208           	J352            	59.38       	101.6       	95.91470923 	0           	Open  	;
 P19             	J411            	J1056           	750.87      	508         	97.7        	0           	Open  	;
 P20             	J1056           	J214            	579.67      	508         	89.67250259 	0           	Open  	;
 P21             	J214            	J212            	176.48      	406         	86.69368007 	0           	Open  	;
 P215            	J419            	T2              	140.76      	254         	81.42351414 	0           	Open  	;
 P22             	J159            	J192            	567.3       	406         	81.11362312 	0           	Open  	;
 P228            	J327            	J328            	42.72       	76          	99.28890046 	0           	Open  	;
 P23             	J192            	J196            	316.91      	508         	77.16263034 	0           	Open  	;
 P230            	J330            	J327            	114.61      	76          	77.39533937 	0           	Open  	;
 P231            	J331            	J330            	12.21       	76          	98.41544449 	0           	Open  	;
 P235            	J336            	J337            	92.74       	76          	84.32189979 	0           	Open  	;
 P237            	J415            	J441            	12.01       	305         	5.0585      	0           	Open  	;
 P238            	J441            	J416            	12.59       	304.8       	104.739957  	0           	Open  	;
 P24             	J177            	J194            	71.05       	508         	88.62083113 	0           	Open  	;
 P245            	J87             	J84             	18.65       	152.4       	120.3989086 	0           	Open  	;
 P248            	J250            	J245            	6.96        	152.4       	110.0672989 	0           	Open  	;
 P25             	J196            	J194            	4.3         	508         	74.37733692 	0           	Open  	;
 P251            	J329            	J362            	11.49       	152         	103.73326   	0           	Open  	;
 P252            	J363            	J364            	135.44      	305         	82.30042619 	0           	Open  	;
 P256            	J371            	J364            	55.17       	305         	94.85911557 	0           	Open  	;
 P266            	J250            	J242            	55.29       	101.6       	107.0557801 	0           	Open  	;
 P287            	J419            	J420            	45.12       	254         	78.34930836 	0           	Open  	;
 P291            	J425            	J426            	132.94      	305         	107.0799731 	0           	Open  	;
 P292            	J416            	J427            	13.54       	305         	97.26629793 	0           	Open  	;
 P293            	J427            	J425            	125.2       	305         	92.15913275 	0           	Open  	;
 P296            	J432            	J433            	231.87      	76          	82.95723709 	0           	Open  	;
 P297            	J411            	J438            	42.53       	406         	73          	0           	Open  	;
 P298            	J438            	J434            	40.11       	305         	84.55106971 	0           	Open  	;
 P301            	J434            	J11             	45.31       	305         	85.18923941 	0           	Open  	;
 P302            	J11             	J433            	178.28      	305         	80.34022293 	0           	Open  	;
 P307            	J433            	J12             	47.3        	305         	60.51223799 	0           	Open  	;
 P308            	J426            	J363            	334.57      	305         	88.07717274 	0           	Open  	;
 P310            	J269            	J156            	9           	610         	87.26802597 	0           	Open  	;
 P316            	R1              	J280            	11.62       	610         	70.45194642 	0           	Open  	;
 P319            	J274            	J269            	10.54       	610         	76.59274096 	0           	Open  	;
 P320            	J273            	J269            	11.47       	610         	76.51881041 	0           	Open  	;
 P322            	J280            	J285            	11.5        	610         	89.43312359 	0           	Open  	;
 P323            	J280            	J276            	11.47       	610         	84.68719833 	0           	Open  	;
 P337            	J497            	J494            	20.49       	305         	5.6181      	0           	Open  	;
 P34             	J179            	J110            	98          	508         	78.50596539 	0           	Open  	;
 P340            	J494            	J496            	96.21       	305         	101.082424  	0           	Open  	;
 P341            	J496            	J498            	189.74      	305         	94.6355163  	0           	Open  	;
 P347            	J509            	T4              	385.56      	305         	96.23520379 	0           	Open  	;
 P348            	J503            	J509            	42.47       	305         	88.72950781 	0           	Open  	;
 P349            	J503            	J511            	39.12       	305         	97.01243523 	0           	Open  	;
 P372            	J219            	J86             	6.42        	101.6       	113.1146519 	0           	Open  	;
 P374            	J287            	J288            	15.83       	254         	91.91560418 	0           	Open  	;
 P375            	J288            	J300            	7.79        	254         	75.48935679 	0           	Open  	;
 P376            	J300            	J299            	6.64        	254         	102.6856466 	0           	Open  	;
 P378            	J292            	J256            	6.47        	254         	112.4496521 	0           	Open  	;
 P379            	J287            	J289            	6.43        	254         	101.7753453 	0           	Open  	;
 P380            	J289            	J290            	4.79        	254         	87.81324875 	0           	Open  	;
 P381            	J291            	J415            	5.53        	304.8       	119.20713   	0           	Open  	;
 P385            	J498            	J134            	106.53      	305         	76.02373041 	0           	Open  	;
 P397            	J332            	J301            	13.16       	203.2       	87.42718755 	0           	Open  	;
 P398            	J301            	J302            	6.75        	203.2       	91.05042408 	0           	Open  	;
 P399            	J302            	J307            	9.71        	203.2       	81.41362338 	0           	Open  	;
 P40             	J59             	J60             	143.64      	102         	107.9143544 	0           	Open  	;
 P402            	J307            	J309            	6.12        	203.2       	89.1549467  	0           	Open  	;
 P403            	J304            	J306            	6.86        	152.4       	111.4725023 	0           	Open  	;
 P409            	J306            	J87             	26.38       	152.4       	89.89786692 	0           	Open  	;
 P410            	J323            	J317            	7.7         	203.2       	85.6676939  	0           	Open  	;
 P424            	J317            	J384            	27.8        	203.2       	124.9856956 	0           	Open  	;
 P44             	J66             	J67             	247.65      	152         	115.1681772 	0           	Open  	;
 P443            	J13             	J12             	67.31       	305         	85.57602477 	0           	Open  	;
 P445            	J417            	J421            	7.8         	254         	86.21060196 	0           	Open  	;
 P465            	J421            	J14             	18.2        	254         	86.56539928 	0           	Open  	;
 P467            	J422            	J420            	15.17       	254         	96.15411097 	0           	Open  	;
 P468            	J420            	J287            	31.29       	254         	105.2733756 	0           	Open  	;
 P484            	J438            	J13             	336.57      	203         	79.98       	0           	Open  	;
 P492            	J86             	J243            	157.32      	101.6       	114.1136636 	0           	Open  	;
 P524            	J511            	J580            	170.54      	305         	96.22781415 	0           	Open  	;
 P527            	J580            	J497            	149.04      	305         	73.12421582 	0           	Open  	;
 P53             	J384            	J1208           	10.32       	203         	87.56071617 	0           	Open  	;
 P58             	J86             	J84             	503.91      	102         	100.8491608 	0           	Open  	;
 P596            	J56             	J58             	76.39       	76          	112.8056283 	0           	Open  	;
 P609            	J57             	J56             	86.07       	76          	111.6336079 	0           	Open  	;
 P7              	J218            	J211            	60.22       	508         	78.45371492 	0           	Open  	;
 P752            	J297            	T7              	70.36       	152         	106.1657491 	0           	Open  	;
 P786            	J197            	J216            	166.27      	203         	110.0001555 	0           	Open  	;
 P787            	J216            	T3              	127.08      	102         	130.1224074 	0           	Open  	;
 P788            	J216            	J227            	107.85      	152         	113.9140977 	0           	Open  	;
 P791            	J227            	J238            	82.5        	152         	115.9461135 	0           	Open  	;
 P796            	J256            	J238            	22.42       	203         	89.87622094 	0           	Open  	;
 P8              	J218            	J212            	11.35       	406         	76.077444   	0           	Open  	;
 P815            	J329            	J328            	50.52       	102         	84.34217359 	0           	Open  	;
 P819            	J1153           	J1157           	8.02        	203         	105.0732947 	0           	Open  	;
 P83             	J155            	J160            	15.14       	610         	75.66382855 	0           	Open  	;
 P841            	J297            	J331            	347.83      	76          	93.67657919 	0           	Open  	;
 P850            	J59             	J57             	241.13      	101.6       	112.5310973 	0           	Open  	;
 P852            	J58             	J67             	40.39       	203         	105.3809228 	0           	Open  	;
 P853            	J67             	J53             	295.68      	203         	118.6474037 	0           	Open  	;
 P86             	J134            	J135            	161         	305         	110.5       	0           	Open  	;
 P892            	J414            	J13             	30.39       	254         	69.84847395 	0           	Open  	;
 P9              	J212            	J217            	49.95       	254         	66.74918886 	0           	Open  	;
 P915            	J1208           	J362            	10.58       	152         	72.77251422 	0           	Open  	;
 P933            	J371            	J23             	130.54      	305         	87.94687626 	0           	Open  	;
 P96             	J414            	J417            	53.72       	254         	87.90275096 	0           	Open  	;
 P97             	J154            	J155            	24.41       	610         	88.89531663 	0           	Open  	;
 P970            	J1154           	J199            	165.04      	203         	87.79507815 	0           	Open  	;
 P98             	J156            	J154            	174.53      	610         	71.75234195 	0           	Open  	;
 P989            	J1153           	J1155           	91.59       	51          	82.07033197 	0           	Open  	;
 P99             	J110            	J109            	452.37      	508         	96.63823156 	0           	Open  	;
 P990            	J1155           	J1154           	78.87       	102         	85.78766419 	0           	Open  	;
 P991            	J214            	J202            	20.25       	203         	74.3133426  	0           	Open  	;
 P992            	J202            	J314            	69.15       	203         	80.64075409 	0           	Open  	;
 P993            	J314            	J199            	63.52       	203         	80.23202717 	0           	Open  	;
 P994            	J199            	J1157           	115.39      	203         	83.09435479 	0           	Open  	;
 P995            	J1157           	J201            	228.99      	152         	82.49961346 	0           	Open  	;
 P996            	J332            	J201            	10.22       	203         	84.57606945 	0           	Open  	;
 P997            	J201            	J308            	154.87      	203         	96.61744961 	0           	Open  	;
 P998            	J308            	J204            	107.98      	203         	90.64077339 	0           	Open  	;
 P999            	J203            	J341            	81.67       	254         	68.70464794 	0           	Open  	;
 1               	J22             	J23             	130         	350         	89          	0           	Open  	;
 2               	J14             	J422            	18          	300         	90          	0           	Open  	;

[PUMPS]
;ID              	Node1           	Node2           	Parameters
 PU1             	J285            	J273            	HEAD 8	;
 PU2             	J280            	J269            	HEAD 8	;
 PU4             	J299            	J292            	HEAD 9	;
 PU6             	J289            	J415            	HEAD 10	;
 PU8             	J301            	J304            	HEAD 9	;
 PU10            	J307            	J317            	HEAD 11	;

[VALVES]
;ID              	Node1           	Node2           	Diameter    	Type	Setting     	MinorLoss   

[TAGS]

[DEMANDS]
;Junction        	Demand      	Pattern         	Category

[STATUS]
;ID              	Status/Setting

[PATTERNS]
;ID              	Multipliers
;
 DMA1_pat        	0.5691504   	0.46466868  	0.43854825  	0.3604161   	0.309779115 	0.334524795 
 DMA1_pat        	0.384703515 	0.471542475 	0.55013289  	0.680505915 	0.70364769  	0.67088259  
 DMA1_pat        	0.79690221  	0.719915685 	0.770552655 	0.73847493  	0.81477408  	0.72426909  
 DMA1_pat        	0.806983785 	0.779259465 	0.866785815 	0.740766195 	0.67042434  	0.632389335 
 DMA1_pat        	0.52252044  	0.506709855 	0.445588455 	0.45465063  	0.47547432  	0.53389635  
 DMA1_pat        	0.662501925 	0.62239704  	0.67599876  	0.72593706  	0.803061855 	0.70144995  
 DMA1_pat        	0.69335184  	0.653825385 	0.621432975 	0.65228289  	0.571880295 	0.57901434  
 DMA1_pat        	0.58209933  	0.711668985 	0.70453494  	0.665779725 	0.741747645 	0.692194965 
 DMA1_pat        	0.72708954  	0.619247205 	0.46304505  	0.45095511  	0.309260895 	0.282421215 
 DMA1_pat        	0.433303785 	0.40670589  	0.545014905 	0.69928266  	0.739904895 	0.6434271   
 DMA1_pat        	0.680905935 	0.691061505 	0.67727895  	0.626259375 	0.626742975 	0.7142742   
 DMA1_pat        	0.681873135 	0.788264685 	0.75779802  	0.788264685 	0.802047225 	0.845571045 
 DMA1_pat        	0.604884255 	0.443633715 	0.5131584   	0.36476118  	0.31782714  	0.463887405 
 DMA1_pat        	0.39572595  	0.64149669  	0.671098245 	0.668761275 	0.79456785  	0.674603685 
 DMA1_pat        	0.754255215 	0.808394895 	0.713747835 	0.68570427  	0.68122509  	0.549576105 
 DMA1_pat        	0.68219883  	0.569829795 	0.74334939  	0.832154025 	0.67888812  	0.746270595 
 DMA1_pat        	0.601325505 	0.503529285 	0.51908778  	0.35946171  	0.29924835  	0.453216765 
 DMA1_pat        	0.42957594  	0.539495655 	0.896330625 	0.89673474  	0.682552935 	0.57990732  
 DMA1_pat        	0.428969775 	0.4200792   	0.62941161  	0.691039395 	0.670631505 	0.618904575 
 DMA1_pat        	0.682552935 	0.832884315 	0.90279648  	0.821771115 	0.84945309  	0.691039395 
 DMA1_pat        	0.716292135 	0.54775281  	0.53349507  	0.419645895 	0.35601804  	0.33814266  
 DMA1_pat        	0.45241743  	0.509874015 	0.56456418  	0.760767795 	0.62159517  	0.67820055  
 DMA1_pat        	0.6928839   	0.639257745 	0.619892745 	0.659686755 	0.65628192  	0.631809675 
 DMA1_pat        	0.604145385 	0.70394961  	0.772471905 	0.88546986  	0.88334184  	0.752042895 
 DMA1_pat        	0.71409849  	0.457925235 	0.446544345 	0.42936957  	0.40184853  	0.43309422  
 DMA1_pat        	0.469926885 	0.52227894  	0.590771145 	0.754862745 	0.76996827  	0.644778585 
 DMA1_pat        	0.73210098  	0.70954614  	0.548144565 	0.577734855 	0.592426545 	0.624499935 
 DMA1_pat        	0.55973238  	0.766864395 	0.716995455 	0.77452062  	0.90446958  	0.85749759  
;
 DMA2_pat        	0.61842105  	0.45394737  	0.444736845 	0.3381579   	0.31578948  	0.313157895 
 DMA2_pat        	0.414473685 	0.448684215 	0.49868421  	0.58157895  	0.684210525 	0.72763158  
 DMA2_pat        	0.669736845 	0.79210527  	0.66842106  	0.815789475 	0.771052635 	0.830263155 
 DMA2_pat        	0.807894735 	0.793421055 	0.83552631  	0.83684211  	0.677631585 	0.661842105 
 DMA2_pat        	0.567746055 	0.470813805 	0.470813805 	0.42607584  	0.428206215 	0.474009375 
 DMA2_pat        	0.57946314  	0.623135925 	0.683851725 	0.774392835 	0.77119728  	0.79569663  
 DMA2_pat        	0.66254793  	0.73604601  	0.71154666  	0.59544099  	0.63485301  	0.616744785 
 DMA2_pat        	0.58159353  	0.596506185 	0.700894755 	0.650830845 	0.71580741  	0.73178526  
 DMA2_pat        	0.681082545 	0.73368099  	0.49901097  	0.373583895 	0.315590715 	0.276479055 