[TITLE]
 Oberlin Water System October 1993 Sampling Run 
 Chlorine - Bulk Decay Only 
 =============================================== 

[JUNCTIONS]
 1                                   560.0000
 2                                   568.0000
 3                                   568.0000
 4                                   568.5000
 5                                   568.0000
 6                                   568.0000
 7                                   560.0000
 8                                   568.0000
 36                                  415.0000
 38                                  422.0000
 39                                  429.0000
 40                                  437.0000
 402                                 437.0000
 41                                  417.0000
 42                                  393.0000
 425                                 393.0000
 43                                  395.0000
 44                                  394.0000
 45                                  411.0000
 455                                 411.0000
 54                                  405.0000
 55                                  404.0000
 56                                  417.0000
 565                                 417.0000
 57                                  386.0000
 58                                  380.0000
 59                                  387.0000
 60                                  379.0000
 61                                  389.0000
 62                                  392.0000
 63                                  373.0000
 64                                  372.0000
 75                                  372.0000
 76                                  368.0000
 77                                  372.0000
 775                                 372.0000
 78                                  393.0000
 79                                  394.0000
 80                                  367.0000
 805                                 367.0000
 81                                  361.0000
 82                                  373.0000
 83                                  386.0000
 84                                  373.0000
 85                                  381.0000
 86                                  381.0000
 87                                  387.0000
 88                                  369.0000
 89                                  378.0000
 90                                  369.0000
 111                                 560.0000
 1112                                560.0000
 112                                 560.0000
 113                                 560.0000
 114                                 560.0000
 115                                 560.0000
 116                                 560.0000
 117                                 560.0000
 118                                 560.0000
 119                                 560.0000
 120                                 558.0000
 1202                                558.0000
 1205                                558.0000
 123                                 560.0000
 124                                 548.0000
 125                                 560.0000
 126                                 542.0000
 127                                 528.0000
 128                                 542.0000
 129                                 498.0000
 130                                 542.0000
 131                                 543.0000
 134                                 432.0000
 135                                 432.0000
 136                                 449.0000
 1365                                449.0000
 137                                 436.0000
 138                                 443.0000
 139                                 451.0000
 140                                 463.0000
 1404                                463.0000
 141                                 459.0000
 142                                 486.0000
 143                                 505.0000
 144                                 489.0000
 145                                 518.0000
 1455                                518.0000
 146                                 504.0000
 147                                 520.0000
 148                                 488.0000
 149                                 465.0000
 150                                 454.0000
 151                                 465.0000
 152                                 447.0000
 153                                 439.0000
 154                                 472.0000
 155                                 467.0000
 1552                                467.0000
 1555                                467.0000
 156                                 491.0000
 1565                                491.0000
 157                                 496.0000
 158                                 498.0000
 1585                                498.0000
 159                                 520.0000
 160                                 540.0000
 1602                                540.0000
 1605                                540.0000
 161                                 452.0000
 1612                                452.0000
 1615                                452.0000
 162                                 475.0000
 163                                 458.0000
 1632                                458.0000
 1634                                458.0000
 164                                 449.0000
 165                                 490.0000
 166                                 475.0000
 167                                 500.0000
 168                                 505.0000
 169                                 505.0000
 1695                                505.0000
 170                                 498.0000
 171                                 498.0000
 172                                 498.0000
 173                                 498.0000
 174                                 500.0000
 175                                 498.0000
 176                                 498.0000
 177                                 458.0000
 1775                                458.0000
 178                                 434.0000
 179                                 484.0000
 180                                 439.0000
 181                                 454.0000
 182                                 432.0000
 1822                                432.0000
 183                                 429.0000
 184                                 457.0000
 1845                                457.0000
 185                                 415.0000
 189                                 502.0000
 190                                 510.0000
 1902                                510.0000
 191                                 525.0000
 192                                 498.0000
 193                                 536.0000
 1934                                536.0000
 1935                                536.0000
 194                                 498.0000
 195                                 498.0000
 196                                 498.0000
 197                                 528.0000
 198                                 515.0000
 199                                 510.0000
 200                                 500.0000
 201                                 498.0000
 205                                 525.0000
 2054                                525.0000
 2055                                525.0000
 206                                 530.0000
 2062                                530.0000
 207                                 560.0000
 208                                 540.0000
 2082                                540.0000
 213                                 522.0000
 215                                 518.0000
 216                                 522.0000
 223                                 510.0000
 2232                                510.0000
 2235                                510.0000
 224                                 500.0000
 225                                 503.0000
 226                                 536.0000
 2265                                536.0000
 227                                 517.0000
 2275                                517.0000
 228                                 540.0000
 229                                 540.0000
 2292                                540.0000
 230                                 540.0000
 2302                                540.0000
 231                                 540.0000
 232                                 540.0000
 2322                                540.0000
 233                                 545.0000
 2332                                545.0000
 234                                 545.0000
 2345                                545.0000
 235                                 540.0000
 2352                                540.0000
 236                                 540.0000
 237                                 540.0000
 238                                 518.0000
 239                                 522.0000
 240                                 522.0000
 241                                 515.0000
 2415                                515.0000
 242                                 480.0000
 243                                 503.0000
 244                                 510.0000
 245                                 525.0000
 246                                 525.0000
 247                                 523.0000
 248                                 535.0000
 249                                 540.0000
 250                                 550.0000
 2502                                550.0000
 251                                 550.0000
 2512                                550.0000
 252                                 550.0000
 253                                 542.0000
 2532                                542.0000
 254                                 543.0000
 255                                 543.0000
 256                                 550.0000
 257                                 542.0000
 258                                 550.0000
 259                                 540.0000
 260                                 432.0000
 261                                 437.0000
 262                                 446.0000
 263                                 438.0000
 2635                                438.0000
 264                                 429.0000
 2642                                429.0000
 265                                 403.0000
 266                                 427.0000
 267                                 405.0000
 268                                 401.0000
 269                                 401.0000
 270                                 400.0000
 271                                 412.0000
 2712                                412.0000
 272                                 400.0000
 273                                 421.0000
 2732                                421.0000
 2735                                421.0000
 274                                 412.0000
 2745                                412.0000
 275                                 400.0000
 2755                                400.0000
 276                                 437.0000
 277                                 406.0000
 278                                 409.0000
 279                                 400.0000
 280                                 405.0000
 281                                 400.0000
 282                                 400.0000
 283                                 400.0000
 2835                                400.0000
 284                                 400.0000
 285                                 386.0000
 286                                 400.0000
 287                                 368.0000
 2875                                368.0000
 288                                 378.0000
 289                                 367.0000
 290                                 399.0000
 291                                 389.0000
 292                                 417.0000
 293                                 501.0000

[RESERVOIRS]
 410                                 600.0000 

[TANKS]

[PIPES]
 1                               1                               2                                   107.0000       6.0000      60.0000       0.0000 
 2                               3                               4                                    50.0000       6.0000     109.0000       0.0000 
 3                               4                               5                                    50.0000       8.0000     109.0000       0.0000 
 4                               5                               6                                   120.0000       8.0000     130.0000       0.0000 
 5                               7                               8                                   100.0000       8.0000     130.0000       0.0000 
 32                              38                              39                                  133.0000       6.0000     118.0000       0.0000 
 33                              38                              40                                   80.0000       6.0000     118.0000       0.0000 
 402                             40                              402                                   1.0000       6.0000     118.0000       0.0000 
 34                              41                              42                                  493.0000       6.0000      64.0000       0.0000 
 425                             42                              425                                   5.0000       6.0000      64.0000       0.0000 
 35                              40                              41                                   77.0000       6.0000      64.0000       0.0000 
 36                              43                              44                                   77.0000       6.0000      64.0000       0.0000 
 37                              45                              43                                  242.0000       6.0000      64.0000       0.0000 
 455                             45                              455                                   5.0000       6.0000      64.0000       0.0000 
 46                              54                              55                                  157.0000       2.0000      56.0000       0.0000 
 47                              56                              54                                  354.0000       2.0000      52.0000       0.0000 
 48                              36                              56                                  263.0000       6.0000      64.0000       0.0000 
 565                             56                              565                                   5.0000       6.0000      64.0000       0.0000 
 49                              57                              56                                  530.0000       8.0000     119.0000       0.0000 
 50                              39                              36                                  189.0000       6.0000     118.0000       0.0000 
 51                              42                              58                                  243.0000       6.0000      64.0000       0.0000 
 52                              59                              42                                  222.0000       6.0000      64.0000       0.0000 
 53                              58                              60                                  251.0000       6.0000     113.0000       0.0000 
 54                              58                              61                                  202.0000       6.0000      64.0000       0.0000 
 55                              59                              44                                  186.0000       6.0000      64.0000       0.0000 
 56                              44                              62                                   39.0000       2.0000      52.0000       0.0000 
 57                              60                              63                                  304.0000       6.0000     130.0000       0.0000 
 58                              64                              63                                  129.0000       6.0000     130.0000       0.0000 
 59                              60                              57                                  153.0000       6.0000     113.0000       0.0000 
 69                              64                              75                                  135.0000       6.0000     130.0000       0.0000 
 70                              76                              64                                  446.0000       2.0000      52.0000       0.0000 
 71                              61                              77                                  271.0000       6.0000      64.0000       0.0000 
 72                              78                              62                                   53.0000       2.0000      52.0000       0.0000 
 73                              79                              78                                  221.0000       2.0000      57.0000       0.0000 
 74                              75                              80                                  447.0000       6.0000     130.0000       0.0000 
 75                              80                              76                                  140.0000       6.0000     117.0000       0.0000 
 76                              80                              81                                  410.0000       6.0000     117.0000       0.0000 
 805                             80                              805                                   5.0000       6.0000     117.0000       0.0000 
 77                              76                              82                                  110.0000       6.0000     117.0000       0.0000 
 775                             77                              775                                   5.0000       6.0000     117.0000       0.0000 
 78                              77                              82                                   31.0000       6.0000     117.0000       0.0000 
 79                              83                              82                                  593.0000       2.0000      60.0000       0.0000 
 80                              77                              84                                  204.0000       6.0000     116.0000       0.0000 
 81                              77                              85                                  242.0000       6.0000     116.0000       0.0000 
 82                              85                              86                                   44.0000       6.0000     116.0000       0.0000 
 83                              86                              87                                  297.0000       6.0000     116.0000       0.0000 
 84                              88                              83                                  209.0000       2.0000      60.0000       0.0000 
 85                              88                              89                                  235.0000       4.0000     108.0000       0.0000 
 86                              90                              88                                   62.0000       2.0000      60.0000       0.0000 
 87                              81                              90                                  185.0000       2.0000      60.0000       0.0000 
 110                             112                             111                                 329.0000       6.0000      60.0000       0.0000 
 111                             111                             113                                 130.0000       6.0000      60.0000       0.0000 
 1112                            1112                            111                                   1.0000       6.0000      60.0000       0.0000 
 112                             114                             111                                  86.0000       8.0000     117.0000       0.0000 
 113                             7                               112                                  89.0000       6.0000      60.0000       0.0000 
 114                             115                             112                                 224.0000       6.0000     118.0000       0.0000 
 115                             116                             7                                   115.0000       6.0000      60.0000       0.0000 
 116                             116                             1                                    75.0000       6.0000      60.0000       0.0000 
 117                             117                             116                                 281.0000       2.0000      52.0000       0.0000 
 118                             1                               118                                 104.0000       6.0000      60.0000       0.0000 
 119                             118                             119                                 366.0000       6.0000      60.0000       0.0000 
 120                             120                             118                                 313.0000       6.0000      60.0000       0.0000 
 1202                            120                             1202                                  1.0000       6.0000      60.0000       0.0000 
 1205                            120                             1205                                  5.0000       6.0000      60.0000       0.0000 
 123                             119                             123                                 176.0000       6.0000      60.0000       0.0000 
 124                             124                             123                                 195.0000       2.0000     120.0000       0.0000 
 125                             123                             125                                 192.0000       8.0000     120.0000       0.0000 
 126                             124                             126                                 148.0000       6.0000     118.0000       0.0000 
 127                             127                             124                                 519.0000       2.0000     120.0000       0.0000 
 128                             126                             128                                 138.0000       2.0000     120.0000       0.0000 
 129                             126                             129                                  62.0000       6.0000      60.0000       0.0000 
 130                             128                             130                                 136.0000       2.0000     120.0000       0.0000 
 131                             131                             130                                  66.0000       2.0000     120.0000       0.0000 
 134                             134                             135                                 228.0000       2.0000      54.0000       0.0000 
 135                             136                             137                                 247.0000       8.0000     130.0000       0.0000 
 1365                            136                             1365                                  5.0000       6.0000     119.0000       0.0000 
 136                             137                             138                                 114.0000       8.0000     130.0000       0.0000 
 137                             137                             135                                 162.0000       2.0000      51.0000       0.0000 
 138                             139                             136                                 150.0000       6.0000     119.0000       0.0000 
 139                             140                             141                                 130.0000       6.0000     117.0000       0.0000 
 140                             142                             140                                 550.0000       8.0000     118.0000       0.0000 
 1404                            140                             1404                                  1.0000       6.0000     117.0000       0.0000 
 141                             143                             142                                 241.0000       6.0000     118.0000       0.0000 
 142                             144                             142                                 141.0000       8.0000     118.0000       0.0000 
 143                             143                             145                                 225.0000       8.0000     118.0000       0.0000 
 144                             146                             143                                 170.0000       2.0000      57.0000       0.0000 
 145                             147                             145                                 173.0000       6.0000      69.0000       0.0000 
 1455                            145                             1455                                  5.0000       6.0000      69.0000       0.0000 
 146                             146                             148                                 154.0000       2.0000      62.0000       0.0000 
 147                             149                             150                                 457.0000       2.0000      51.0000       0.0000 
 148                             151                             150                                 199.0000       6.0000      70.0000       0.0000 
 149                             150                             152                                 116.0000       2.0000      51.0000       0.0000 
 150                             150                             153                                 162.0000       6.0000      70.0000       0.0000 
 151                             154                             149                                 632.0000       2.0000      51.0000       0.0000 
 152                             155                             149                                 210.0000       6.0000     119.0000       0.0000 
 1552                            155                             1552                                  1.0000       6.0000     119.0000       0.0000 
 1555                            155                             1555                                  5.0000       6.0000     119.0000       0.0000 
 153                             149                             139                                 137.0000       6.0000     119.0000       0.0000 
 154                             156                             154                                 467.0000       2.0000      51.0000       0.0000 
 155                             157                             156                                 205.0000       2.0000      51.0000       0.0000 
 156                             158                             156                                 372.0000       8.0000     118.0000       0.0000 
 1565                            156                             1565                                  5.0000       6.0000     119.0000       0.0000 
 1585                            158                             1585                                  5.0000       6.0000     119.0000       0.0000 
 157                             156                             144                                 151.0000       8.0000     118.0000       0.0000 
 158                             159                             157                                 332.0000       1.2520      44.0000       0.0000 
 159                             160                             159                                 413.0000       2.0000      52.0000       0.0000 
 1602                            160                             1602                                  1.0000       6.0000     119.0000       0.0000 
 1605                            160                             1605                                  5.0000       6.0000     119.0000       0.0000 
 160                             151                             161                                 221.0000       8.0000      66.0000       0.0000 
 1612                            161                             1612                                  1.0000       8.0000      66.0000       0.0000 
 1615                            161                             1615                                  5.0000       6.0000      60.0000       0.0000 
 161                             162                             151                                 254.0000       8.0000      66.0000       0.0000 
 162                             161                             163                                 291.0000       4.0000      56.0000       0.0000 
 1632                            163                             1632                                  1.0000       6.0000      60.0000       0.0000 
 1634                            163                             1634                                  1.0000       6.0000      60.0000       0.0000 
 163                             161                             164                                  46.0000       6.0000      60.0000       0.0000 
 164                             165                             162                                 171.0000       1.2520      41.0000       0.0000 
 165                             155                             162                                 212.0000       8.0000      66.0000       0.0000 