[TITLE]
pescara -- Bragalli, D'Ambrosio, Lee, Lodi, Toth (2008) 

[JUNCTIONS]
 1                                     2.9000
 2                                     5.0000
 3                                     3.5000
 4                                     3.8000
 5                                     2.2000
 6                                     7.0000
 7                                     6.5000
 8                                     5.2000
 9                                     4.3000
 10                                    5.2000
 11                                   28.0000
 12                                    3.2000
 13                                    3.2000
 14                                   19.2000
 17                                    4.0000
 18                                    3.5000
 19                                    2.8000
 20                                    2.7000
 21                                    1.8000
 22                                    2.1000
 23                                    2.0000
 24                                   18.7000
 25                                    3.2000
 26                                    1.6000
 27                                    3.8000
 28                                    4.3000
 29                                    3.6000
 30                                    3.2000
 31                                    2.8000
 32                                    1.8000
 33                                    3.8000
 34                                    2.9000
 35                                    3.7000
 36                                    2.1000
 37                                    6.7000
 38                                    6.7000
 39                                    4.2000
 40                                    2.9000
 41                                    2.9000
 42                                   28.5000
 44                                   27.3000
 45                                    1.1000
 46                                    2.5000
 47                                    2.8000
 48                                    3.3000
 49                                    1.8000
 50                                    1.8000
 51                                    1.6000
 52                                    1.8000
 53                                    1.6000
 54                                    3.3000
 55                                    2.5000
 56                                    2.8000
 57                                    3.2000
 58                                    3.6000
 59                                    3.8000
 60                                    3.1000
 61                                    3.0000
 62                                    4.2000
 76                                    4.2000
 82                                    2.1000
 83                                    2.1000
 84                                    3.3000
 85                                    2.1000
 86                                    1.5000
 87                                   19.2000
 88                                    2.1000
 89                                    1.5000

[RESERVOIRS]
 15                                   57.0000 
 43                                   53.0800 
 65                                   55.0000 

[TANKS]

[PIPES]
 1                               1                               2                                   977.3600     100.0000     130.0000       0.0000 
 2                               3                               4                                   443.1700     150.0000     130.0000       0.0000 
 3                               3                               5                                  1410.7700     100.0000     130.0000       0.0000 
 4                               3                               1                                   269.6100     125.0000     130.0000       0.0000 
 5                               6                               7                                   116.5200     100.0000     130.0000       0.0000 
 6                               6                               8                                   203.0600     100.0000     130.0000       0.0000 
 7                               9                               6                                  2309.1400     100.0000     130.0000       0.0000 
 8                               10                              11                                 1479.9800     150.0000     130.0000       0.0000 
 11                              15                              14                                   43.9700     350.0000     130.0000       0.0000 
 12                              13                              17                                  589.1600     200.0000     130.0000       0.0000 
 13                              18                              13                                  618.5300     200.0000     130.0000       0.0000 
 14                              18                              19                                  341.1000     200.0000     130.0000       0.0000 
 15                              20                              18                                  341.9200     100.0000     130.0000       0.0000 
 16                              21                              20                                  434.2400     100.0000     130.0000       0.0000 
 17                              22                              23                                  240.5900     100.0000     130.0000       0.0000 
 18                              24                              25                                  957.4400     200.0000     130.0000       0.0000 
 19                              14                              24                                  171.0400     350.0000     130.0000       0.0000 
 20                              24                              17                                  235.5700     300.0000     130.0000       0.0000 
 21                              26                              17                                    3.5900     200.0000     130.0000       0.0000 
 22                              26                              27                                  324.3600     200.0000     130.0000       0.0000 
 24                              21                              22                                  749.7400     100.0000     130.0000       0.0000 
 25                              23                              21                                  639.7000     100.0000     130.0000       0.0000 
 26                              27                              23                                  422.9500     100.0000     130.0000       0.0000 
 27                              20                              27                                  843.5200     125.0000     130.0000       0.0000 
 28                              19                              20                                  609.2300     100.0000     130.0000       0.0000 
 29                              28                              29                                  179.0400     150.0000     130.0000       0.0000 
 30                              28                              30                                  570.9000     100.0000     130.0000       0.0000 
 31                              30                              28                                  575.7300     100.0000     130.0000       0.0000 
 32                              31                              32                                  250.2800     100.0000     130.0000       0.0000 
 33                              30                              33                                  442.1100     100.0000     130.0000       0.0000 
 34                              34                              30                                  762.3500     100.0000     130.0000       0.0000 
 35                              35                              36                                 1124.9000     100.0000     130.0000       0.0000 
 36                              31                              11                                 1903.7500     100.0000     130.0000       0.0000 
 37                              37                              31                                  125.5100     125.0000     130.0000       0.0000 
 38                              37                              38                                  121.2700     200.0000     130.0000       0.0000 
 39                              19                              38                                   55.3200     200.0000     130.0000       0.0000 
 41                              40                              39                                  424.8600     100.0000     130.0000       0.0000 
 42                              40                              41                                   72.8000     100.0000     130.0000       0.0000 
 43                              9                               40                                  554.0800     100.0000     130.0000       0.0000 
 44                              33                              9                                   305.5300     100.0000     130.0000       0.0000 
 45                              41                              33                                  568.3500     100.0000     130.0000       0.0000 
 46                              34                              41                                   63.8100     100.0000     130.0000       0.0000 
 47                              39                              34                                  310.7600     100.0000     130.0000       0.0000 
 48                              12                              39                                 1217.1700     200.0000     130.0000       0.0000 
 49                              25                              12                                  365.8200     150.0000     130.0000       0.0000 
 50                              35                              25                                 1408.3300     100.0000     130.0000       0.0000 
 51                              29                              35                                   33.2500     100.0000     130.0000       0.0000 
 52                              8                               29                                  720.9000     200.0000     130.0000       0.0000 
 53                              42                              11                                  441.6900     250.0000     130.0000       0.0000 
 54                              43                              42                                  332.9900     400.0000     130.0000       0.0000 
 55                              44                              42                                  229.8500     350.0000     130.0000       0.0000 
 56                              45                              46                                  500.9200     100.0000     130.0000       0.0000 
 57                              47                              48                                  232.0700     250.0000     130.0000       0.0000 
 58                              32                              49                                    5.4300     100.0000     130.0000       0.0000 
 59                              46                              32                                   66.2400     100.0000     130.0000       0.0000 
 60                              50                              46                                  232.1300     100.0000     130.0000       0.0000 
 61                              49                              50                                  154.7800     100.0000     130.0000       0.0000 
 62                              48                              49                                  645.1000     100.0000     130.0000       0.0000 
 63                              51                              48                                  157.8700     200.0000     130.0000       0.0000 
 64                              50                              51                                  645.7900     100.0000     130.0000       0.0000 
 65                              52                              50                                  206.6900     100.0000     130.0000       0.0000 
 66                              51                              53                                  156.7500     150.0000     130.0000       0.0000 
 68                              54                              55                                  152.8100     100.0000     130.0000       0.0000 
 70                              56                              47                                   52.3700     250.0000     130.0000       0.0000 
 71                              44                              57                                  394.6700     300.0000     130.0000       0.0000 
 72                              56                              44                                  774.6900     100.0000     130.0000       0.0000 
 73                              57                              56                                  435.5800     200.0000     130.0000       0.0000 
 74                              58                              57                                  899.6700     250.0000     130.0000       0.0000 
 75                              59                              60                                  198.5000     125.0000     130.0000       0.0000 
 76                              55                              61                                 1116.1500     100.0000     130.0000       0.0000 
 78                              52                              53                                  631.8000     100.0000     130.0000       0.0000 
 79                              45                              52                                  350.9700     100.0000     130.0000       0.0000 
 81                              61                              5                                   226.0300     125.0000     130.0000       0.0000 
 82                              60                              61                                  186.7700     100.0000     130.0000       0.0000 
 83                              58                              60                                  337.2400     100.0000     130.0000       0.0000 
 84                              62                              58                                  173.0900     250.0000     130.0000       0.0000 
 85                              62                              2                                   784.4500     100.0000     130.0000       0.0000 
 86                              59                              62                                   86.3900     200.0000     130.0000       0.0000 
 87                              4                               59                                  732.9300     200.0000     130.0000       0.0000 
 88                              2                               4                                   193.7800     100.0000     130.0000       0.0000 
 89                              65                              6                                  1744.2700     100.0000     130.0000       0.0000 
 90                              65                              76                                  154.1800     250.0000     130.0000       0.0000 
 92                              86                              45                                 1635.6900     100.0000     130.0000       0.0000 
 93                              76                              8                                  1072.6900     250.0000     130.0000       0.0000 
 94                              82                              83                                    5.0000     100.0000     130.0000       0.0000 
 95                              82                              85                                  240.0500     100.0000     130.0000       0.0000 
 96                              22                              85                                  841.6300     100.0000     130.0000       0.0000 
 97                              26                              83                                  601.5800     100.0000     130.0000       0.0000 
 98                              5                               86                                 1600.0000     100.0000     130.0000       0.0000 
 100                             54                              84                                  180.0000     100.0000     130.0000       0.0000 
 102                             83                              85                                  240.0000     100.0000     130.0000       0.0000 
 103                             43                              87                                   10.0000     150.0000     130.0000       0.0000 
 104                             55                              89                                  179.5400     100.0000     130.0000       0.0000 
 105                             89                              53                                  331.4000     100.0000     130.0000       0.0000 
 106                             55                              88                                  332.3500     100.0000     130.0000       0.0000 
 107                             88                              51                                  325.0300     100.0000     130.0000       0.0000 
 108                             84                              88                                  113.3500     100.0000     130.0000       0.0000 
 109                             88                              89                                  150.8200     100.0000     130.0000       0.0000 
 110                             55                              86                                  165.4300     100.0000     130.0000       0.0000 

[PUMPS]

[VALVES]

[DEMANDS]
 1                                    10.010000 
 2                                    12.430000 
 3                                     8.500000 
 4                                     8.500000 
 5                                    12.120000 
 6                                     1.630000 
 7                                     0.000000 
 8                                    33.600000 
 9                                     4.380000 
 10                                   16.400000 
 11                                   29.770000 
 12                                    0.490000 
 13                                    7.490000 
 14                                    6.060000 
 17                                    2.770000 
 18                                    5.030000 
 19                                    4.810000 
 20                                   21.040000 
 21                                   16.940000 
 22                                   10.410000 
 23                                    2.170000 
 24                                    6.550000 
 25                                   10.410000 
 26                                    2.780000 
 27                                    5.320000 
 28                                    3.630000 
 29                                   33.000000 
 30                                    6.000000 
 31                                    6.400000 
 32                                    2.960000 
 33                                    3.090000 
 34                                    3.090000 
 35                                    8.790000 
 36                                    1.680000 
 37                                   12.640000 
 38                                   12.640000 
 39                                   12.640000 
 40                                    5.560000 
 41                                    2.600000 
 42                                    4.570000 
 44                                    7.560000 
 45                                    6.210000 
 46                                    3.090000 
 47                                    0.590000 
 48                                   12.630000 
 49                                    3.410000 
 50                                   13.210000 
 51                                    3.870000 
 52                                    6.430000 
 53                                    2.550000 
 54                                    0.000000 
 55                                   11.300000 
 56                                    3.990000 
 57                                    7.750000 
 58                                    1.910000 
 59                                    0.880000 
 60                                    5.140000 
 61                                    5.140000 
 62                                    7.440000 
 76                                    0.000000 
 82                                    0.010000 
 83                                    0.000000 
 84                                    0.540000 
 85                                    0.370000 
 86                                    6.460000 
 87                                   25.000000 
 88                                    2.150000 
 89                                    1.750000 

[EMITTERS]

[STATUS]

[PATTERNS]

[CURVES]

[CONTROLS]

[QUALITY]

[SOURCES]

[MIXING]

[REACTIONS]
 ORDER  BULK            1.00
 ORDER  WALL            1
 ORDER  TANK            1.00
 GLOBAL BULK            0.000000
 GLOBAL WALL            0.000000

[ENERGY]
 GLOBAL EFFIC        75.0000
 DEMAND CHARGE       0.0000

[TIMES]
 DURATION            0:00:00
 HYDRAULIC TIMESTEP  1:00:00
 QUALITY TIMESTEP    0:05:00
 REPORT TIMESTEP     1:00:00
 REPORT START        0:00:00
 PATTERN TIMESTEP    2:00:00
 PATTERN START       0:00:00
 RULE TIMESTEP       0:06:00
 START CLOCKTIME     0:00:00
 STATISTIC           NONE

[OPTIONS]
 UNITS               LPS
 PRESSURE            METERS
 HEADLOSS            H-W
 UNBALANCED          CONTINUE 10
 QUALITY             NONE
 DEMAND MULTIPLIER   1.0000
 EMITTER EXPONENT    0.5000
 VISCOSITY           1.000000
 DIFFUSIVITY         1.000000
 SPECIFIC GRAVITY    1.000000
 TRIALS              40
 ACCURACY            0.00100000
 TOLERANCE           0.01000000
 CHECKFREQ           2
 MAXCHECK            10
 DAMPLIMIT           0.00000000

[REPORT]
 PAGESIZE            0
 STATUS              YES
 SUMMARY             NO
 ENERGY              NO
 MESSAGES            YES
 NODES               NONE
 LINKS               NONE
 Elevation           NO
 Demand              PRECISION 2
 Head                PRECISION 2
 Pressure            PRECISION 2
 Quality             NO
 Length              NO
 Diameter            NO
 Flow                PRECISION 2
 Velocity            PRECISION 2
 Headloss            PRECISION 2
 Quality             NO
 State               NO
 Setting             NO
 Reaction            NO



[COORDINATES]
 1                                656582.880000  963296.250000
 2                                657289.060000  963069.500000
 3                                656852.190000  963283.190000
 4                                657294.630000  963262.250000
 5                                657933.440000  963588.940000
 6                                661346.750000  960658.380000
 7                                661252.190000  960607.190000
 8                                661547.630000  960688.130000
 9                                660262.190000  961842.690000
 10                               659947.690000  961952.630000
 11                               659120.750000  962107.190000
 12                               661689.690000  962215.250000
 13                               661623.880000  962717.690000
 14                               662482.810000  962917.750000
 17                               662131.880000  963005.560000
 18                               661006.880000  962760.810000
 19                               660673.440000  962792.060000
 20                               661012.000000  963102.440000
 21                               661221.060000  963474.690000
 22                               661856.940000  963711.130000
 23                               661860.750000  963473.880000
 24                               662326.000000  962957.190000
 25                               662031.810000  962086.690000
 26                               662135.060000  963007.190000
 27                               661853.690000  963051.000000
 28                               661141.500000  961352.250000
 29                               661319.630000  961368.810000
 30                               660878.690000  961712.130000
 31                               660390.130000  962876.630000
 32                               660381.190000  963121.000000
 33                               660557.310000  961781.060000
 34                               660596.630000  962340.810000
 35                               661308.000000  961400.000000
 36                               660857.630000  962345.560000
 37                               660500.440000  962822.940000
 38                               660618.310000  962796.500000
 39                               660651.250000  962646.690000
 40                               660461.310000  962359.190000
 41                               660533.310000  962348.810000
 42                               659046.310000  962535.190000
 44                               659015.000000  962761.750000
 45                               660704.560000  963432.500000
 46                               660447.380000  963119.130000
 47                               659504.060000  963179.190000
 48                               659732.880000  963154.940000
 49                               660377.060000  963121.750000
 50                               660375.880000  963276.440000
 51                               659734.190000  963310.880000
 52                               660371.380000  963483.060000
 53                               659739.940000  963467.500000
 54                               659230.130000  963333.940000
 55                               659229.190000  963481.630000
 56                               659457.440000  963155.310000
 57                               659097.250000  963096.190000
 58                               658198.440000  963134.440000
 59                               658026.940000  963233.880000
 60                               658114.750000  963350.060000
 61                               658119.750000  963536.750000
 62                               658025.810000  963147.500000
 76                               662523.130000  960626.310000
 82                               662454.000000  963567.130000
 83                               662458.630000  963565.250000
 84                               659408.690000  963212.440000
 85                               662548.060000  963787.940000
 86                               659408.690000  963642.060000
 87                               658728.690000  962454.750000
 88                               659408.690000  963325.810000
 89                               659408.690000  963476.630000
 15                               662492.560000  962874.810000
 43                               658738.690000  962454.750000
 65                               662568.190000  960492.440000

[TAGS]

[VERTICES]
;Link            	X-Coord         	Y-Coord

[LABELS]
;X-Coord           Y-Coord          Label & Anchor Node

[BACKDROP]
 DIMENSIONS     	656280.19       	960321.30       	662939.25       	963953.02       
 UNITS          	None
 FILE           	
 OFFSET         	0.00            	0.00            


[END]